[TITLE]


[JUNCTIONS]
;ID              	Elev        	Demand      	Pattern         
 IN0001          	27.946016   	0           	                	;
 IN0002          	22.055866   	0           	                	;
 IN0003          	29.642281   	0           	                	;
 IN0004          	14.365492   	0           	                	;
 IN0005          	15.776011   	0           	                	;
 IN0006          	15.477199   	0           	                	;
 IN0007          	11.047064   	0           	                	;
 IN0008          	9.25885     	0           	                	;
 IN0009          	27.476173   	0           	                	;
 IN0010          	20.593781   	0           	                	;
 IN0011          	15.997519   	0           	                	;
 TN0012          	13.061971   	26          	res             	;
 TN0013          	8.123878    	21          	com             	;
 TN0014          	13.050201   	15.6        	com2            	;
 TN0015          	9.270737    	12.6        	com3            	;
 TN0016          	20.715902   	9.7         	com4            	;
 TN0017          	13.715975   	17.5        	com5            	;
 TN0018          	18.593336   	12.4        	res2            	;
 TN0019          	12.514433   	14.1        	com6            	;
 IN0020          	9.216929    	0           	                	;
 IN0021          	8.662052    	0           	                	;
 IN0022          	10.723774   	0           	                	;
 IN0023          	2.899945    	0           	                	;
 IN0024          	18.483047   	0           	                	;
 IN0025          	22.298405   	0           	                	;
 IN0026          	19.582283   	0           	                	;
 IN0027          	15.470314   	0           	                	;
 IN0028          	7.260435    	0           	                	;
 IN0029          	1.437066    	0           	                	;
 IN0030          	0.184359    	0           	                	;
 IN0031          	1.162629    	0           	                	;
 IN0032          	1.196177    	0           	                	;
 IN0033          	4.551305    	0           	                	;
 IN0034          	4.976033    	0           	                	;
 IN0035          	5.019862    	0           	                	;
 IN0036          	8.058198    	0           	                	;
 IN0037          	7.305528    	0           	                	;
 IN0038          	10.452273   	0           	                	;
 IN0039          	11.709536   	0           	                	;
 IN0040          	14.096163   	0           	                	;
 IN0041          	18.205711   	0           	                	;
 TN0042          	12.496663   	12.1        	com7            	;
 TN0043          	17.879936   	6.5         	com8            	;
 TN0044          	24.335335   	19.6        	res3            	;
 TN0045          	30.182735   	13.4        	com9            	;
 TN0046          	31.699005   	11.3        	com10           	;
 TN0047          	23.349791   	8.2         	com11           	;
 TN0048          	28.399279   	19.9        	com12           	;
 TN0049          	23.847979   	21.7        	com13           	;
 TN0050          	21.520628   	9.2         	com14           	;
 TN0051          	17.540192   	15          	com15           	;
 TN0052          	17.240789   	10          	com16           	;
 TN0053          	21.303812   	19.7        	com17           	;
 TN0054          	18.094629   	12.2        	com18           	;
 TN0055          	13.921557   	11.3        	com19           	;
 TN0056          	10.163603   	12.7        	com20           	;
 TN0057          	6.634921    	18.1        	com21           	;
 TN0058          	2.414356    	21.8        	com22           	;
 TN0059          	2.76246     	19          	com23           	;
 TN0060          	6.244805    	18.8        	com24           	;
 TN0061          	9.234157    	20.4        	com25           	;
 TN0062          	12.70607    	17.2        	com26           	;
 TN0063          	14.867135   	16          	com27           	;
 TN0064          	3.338708    	35.6        	com28           	;
 TN0065          	5.361718    	19.4        	com29           	;
 TN0066          	5.518593    	14.1        	com30           	;
 TN0067          	5.129876    	12.8        	com31           	;
 TN0068          	5.72732     	11.4        	com32           	;
 TN0069          	0.78744     	3.5         	com33           	;
 TN0070          	0.277035    	2.4         	com34           	;
 TN0071          	0.985836    	2.7         	com35           	;
 TN0072          	0.722855    	5.2         	com36           	;
 TN0073          	0           	8.1         	com37           	;
 TN0074          	0           	4.6         	com38           	;
 TN0075          	0.461402    	3.7         	com39           	;
 IN0076          	1.929749    	0           	                	;
 IN0077          	3.015746    	0           	                	;
 TN0078          	11.445671   	16.2        	com40           	;
 TN0079          	13.205186   	18.6        	com41           	;
 TN0080          	8.697587    	11.7        	com42           	;
 TN0081          	5.44028     	16.8        	com43           	;
 TN0082          	2.83246     	13.7        	com44           	;
 TN0083          	0.50614     	7.9         	com45           	;
 TN0084          	2.320598    	61.5        	com46           	;
 TN0085          	4.521284    	29.2        	com47           	;
 TN0086          	5.771236    	11.5        	com48           	;
 TN0087          	7.343922    	16.6        	com49           	;
 TN0088          	0.211517    	24.4        	com50           	;
 IN0089          	5.199087    	0           	                	;
 IN0090          	2.553284    	0           	                	;
 IN0091          	5.05876     	0           	                	;
 IN0092          	0.662742    	0           	                	;
 IN0093          	6.257928    	0           	                	;
 IN0094          	7.053216    	0           	                	;
 IN0095          	9.824923    	0           	                	;
 IN0096          	7.681266    	0           	                	;
 IN0097          	12.757257   	0           	                	;
 IN0098          	15.069481   	0           	                	;
 IN0099          	12.011193   	0           	                	;
 IN0100          	8.584242    	0           	                	;
 IN0101          	14.417268   	0           	                	;
 IN0102          	17.003241   	0           	                	;
 IN0103          	22.026722   	0           	                	;
 IN0104          	16.027649   	0           	                	;
 IN0105          	10.32335    	0           	                	;
 IN0106          	3.163653    	0           	                	;
 IN0107          	4.235639    	0           	                	;
 IN0108          	11.155138   	0           	                	;
 IN0109          	17.090271   	0           	                	;
 IN0110          	21.56838    	0           	                	;
 IN0111          	29.135414   	0           	                	;
 IN0112          	30.020149   	0           	                	;
 IN0113          	22.648451   	0           	                	;
 IN0114          	16.825186   	0           	                	;
 IN0115          	10.617853   	0           	                	;
 IN0116          	2.517945    	0           	                	;
 IN0117          	35.585796   	0           	                	;
 IN0118          	36.282471   	0           	                	;
 IN0119          	38.190876   	0           	                	;
 IN0120          	39.711613   	0           	                	;
 IN0121          	36.511635   	0           	                	;
 IN0122          	26.080154   	0           	                	;
 IN0123          	23.569925   	0           	                	;
 IN0124          	22.549723   	0           	                	;
 TN0125          	32.196041   	19.7        	com51           	;
 TN0126          	24.587425   	13.8        	com52           	;
 TN0127          	18.166126   	11.6        	com53           	;
 TN0128          	14.236417   	11.7        	com54           	;
 TN0129          	6.5854      	12.8        	com55           	;
 TN0130          	1.342773    	4.1         	com56           	;
 TN0131          	0.858657    	14.8        	res4            	;
 TN0132          	5.134109    	57          	res5            	;
 TN0133          	12.387808   	6.2         	com57           	;
 TN0134          	18.466644   	5.6         	com58           	;
 TN0135          	25.310081   	8.9         	com59           	;
 TN0136          	34.489346   	17.7        	com60           	;
 TN0137          	0.949831    	0.5         	res6            	;
 IN0138          	0.928808    	0           	                	;
 IN0139          	0.927966    	0           	                	;
 IN0140          	2.064912    	0           	                	;
 IN0141          	3.352047    	0           	                	;
 IN0142          	0.595267    	0           	                	;
 IN0143          	1.973953    	0           	                	;
 IN0144          	3.395857    	0           	                	;
 IN0145          	4.845164    	0           	                	;
 IN0146          	5.869749    	0           	                	;
 IN0147          	7.127736    	0           	                	;
 IN0148          	9.389587    	0           	                	;
 IN0149          	8.206012    	0           	                	;
 IN0150          	7.041983    	0           	                	;
 IN0151          	6.030141    	0           	                	;
 IN0152          	4.757148    	0           	                	;
 IN0153          	9.925356    	0           	                	;
 IN0154          	10.809065   	0           	                	;
 IN0155          	11.547426   	0           	                	;
 IN0156          	8.275189    	0           	                	;
 IN0157          	9.538844    	0           	                	;
 IN0158          	10.515737   	0           	                	;
 IN0159          	8.729935    	0           	                	;
 IN0160          	8.142624    	0           	                	;
 IN0161          	7.308021    	0           	                	;
 IN0162          	6.675101    	0           	                	;
 IN0163          	5.897906    	0           	                	;
 IN0164          	5.312053    	0           	                	;
 IN0165          	4.469605    	0           	                	;
 IN0166          	3.743443    	0           	                	;
 IN0167          	2.910811    	0           	                	;
 IN0168          	2.059055    	0           	                	;
 IN0169          	1.135152    	0           	                	;
 IN0170          	0.655101    	0           	                	;
 IN0171          	0           	0           	                	;
 IN0172          	0           	0           	                	;
 IN0173          	0           	0           	                	;
 IN0174          	0.158254    	0           	                	;
 IN0175          	11.975627   	0           	                	;
 IN0176          	12.297138   	0           	                	;
 IN0177          	9.590053    	0           	                	;
 IN0178          	2.048456    	0           	                	;
 IN0179          	3.197844    	0           	                	;
 IN0180          	4.237859    	0           	                	;
 IN0181          	0.03631     	0           	                	;
 TN0182          	1.652022    	31.4        	com61           	;
 TN0183          	3.237861    	35.3        	com62           	;
 TN0184          	4.632472    	28          	res7            	;
 TN0185          	5.629447    	27          	com63           	;
 TN0186          	6.735903    	24.5        	com64           	;
 TN0187          	7.863317    	16.5        	com65           	;
 TN0188          	8.648488    	11.8        	com66           	;
 TN0189          	10.303962   	37.2        	com67           	;
 TN0190          	12.309038   	15.9        	com68           	;
 TN0191          	11.101081   	28.6        	res8            	;
 TN0192          	9.842384    	29.5        	com69           	;
 TN0193          	8.723786    	27.9        	res9            	;
 TN0194          	7.566576    	29          	com70           	;
 TN0195          	6.680748    	15          	com71           	;
 TN0196          	5.233724    	28.1        	com72           	;
 TN0197          	4.029129    	30.7        	com73           	;
 TN0198          	2.973428    	35          	com74           	;
 TN0199          	1.723533    	44.1        	com77           	;
 TN0200          	1.171634    	10.3        	com78           	;
 TN0201          	0           	24.1        	com79           	;
 TN0202          	0.085927    	8.9         	com80           	;
 TN0203          	0           	92.4        	res10           	;
 TN0204          	0           	5.4         	com81           	;
 TN0205          	0.619777    	24.4        	com82           	;
 TN0206          	2.11528     	25          	com83           	;
 TN0207          	3.335151    	22.8        	com84           	;
 TN0208          	4.825796    	29.5        	res11           	;
 TN0209          	5.485902    	27.4        	res12           	;
 TN0210          	6.357994    	20.2        	com85           	;
 TN0211          	7.102467    	10.2        	com86           	;
 TN0212          	7.863011    	28.4        	res13           	;
 TN0213          	8.438748    	19.7        	res14           	;
 TN0214          	9.041644    	23.5        	com87           	;
 TN0215          	9.873487    	18.2        	com88           	;
 TN0216          	10.61092    	12.9        	com89           	;
 IN0217          	0           	0           	                	;
 IN0218          	0.213518    	0           	                	;
 IN0219          	0.355511    	0           	                	;
 IN0220          	0.483581    	0           	                	;
 IN0221          	0.623121    	0           	                	;
 IN0222          	1.331476    	0           	                	;
 IN0223          	2.117033    	0           	                	;
 IN0224          	2.734761    	0           	                	;
 IN0225          	3.373105    	0           	                	;
 IN0226          	1.153238    	0           	                	;
 IN0227          	1.002632    	0           	                	;
 IN0228          	0.895637    	0           	                	;
 IN0229          	0.776731    	0           	                	;
 IN0230          	0.666309    	0           	                	;
 IN0231          	0.525909    	0           	                	;
 IN0232          	0.402297    	0           	                	;
 IN0233          	0.239127    	0           	                	;
 IN0234          	0.001046    	0           	                	;
 IN0235          	0.051778    	0           	                	;
 IN0236          	0.240837    	0           	                	;
 IN0237          	0.430889    	0           	                	;
 IN0238          	0.542039    	0           	                	;
 IN0239          	0.653023    	0           	                	;
 IN0240          	0.762954    	0           	                	;
 IN0241          	0.93112     	0           	                	;
 IN0242          	1.072136    	0           	                	;
 IN0243          	1.175084    	0           	                	;
 IN0244          	4.284698    	0           	                	;
 IN0245          	1.627623    	0           	                	;
 IN0246          	2.297863    	0           	                	;
 IN0247          	5.031917    	0           	                	;
 IN0248          	5.821808    	0           	                	;
 IN0249          	3.114788    	0           	                	;
 IN0250          	1.560331    	0           	                	;
 IN0251          	1.671334    	0           	                	;
 IN0252          	3.858631    	0           	                	;
 IN0253          	6.760382    	0           	                	;
 IN0254          	1.415822    	0           	                	;
 IN0255          	1.299537    	0           	                	;
 IN0256          	1.278359    	0           	                	;
 IN0257          	1.439987    	0           	                	;
 IN0258          	1.577032    	0           	                	;
 IN0259          	1.691068    	0           	                	;
 IN0260          	1.146209    	0           	                	;
 IN0261          	0.992892    	0           	                	;
 IN0262          	0.880081    	0           	                	;
 IN0263          	0.775453    	0           	                	;
 IN0264          	0.63109     	0           	                	;
 IN0265          	0.526856    	0           	                	;
 IN0266          	0.375717    	0           	                	;
 IN0267          	0.166793    	0           	                	;
 IN0268          	0.0469      	0           	                	;
 IN0269          	0.038574    	0           	                	;
 IN0270          	0.056074    	0           	                	;
 IN0271          	0.243674    	0           	                	;
 IN0272          	0.403739    	0           	                	;
 IN0273          	0.554052    	0           	                	;
 IN0274          	0.679161    	0           	                	;
 IN0275          	0.392525    	0           	                	;
 IN0276          	0.254819    	0           	                	;
 IN0277          	0.059806    	0           	                	;
 IN0278          	0.77851     	0           	                	;
 IN0279          	0.254326    	0           	                	;
 IN0280          	0.046364    	0           	                	;
 IN0281          	0.220375    	0           	                	;
 TN0282          	0           	12.6        	res15           	;
 TN0283          	0.068321    	31.6        	com90           	;
 TN0284          	0.302435    	15.9        	com91           	;
 TN0285          	0.967857    	33.3        	res16           	;
 TN0286          	1.940899    	33.7        	res17           	;
 TN0287          	2.777789    	33.1        	res18           	;
 TN0288          	3.55401     	34.6        	res19           	;
 TN0289          	4.374807    	24.6        	res20           	;
 TN0290          	4.980764    	29.5        	res21           	;
 TN0291          	5.521354    	30.7        	res22           	;
 TN0292          	6.422624    	31.2        	res23           	;
 TN0293          	6.946321    	10.8        	com92           	;
 TN0294          	7.64206     	15.2        	com93           	;
 TN0295          	0           	13.7        	res24           	;
 TN0296          	0.088248    	70.3        	res25           	;
 TN0297          	0.303139    	36.6        	res26           	;
 TN0298          	0.433856    	29.4        	res27           	;
 TN0299          	0.580097    	31.6        	res28           	;
 TN0300          	0.711097    	12.2        	com94           	;
 TN0301          	0.841486    	27.8        	res29           	;
 TN0302          	1.030458    	21.5        	res30           	;
 TN0303          	1.734897    	12.5        	com95           	;
 TN0304          	2.748824    	26.9        	res31           	;
 TN0305          	3.42848     	16.3        	res32           	;
 TN0306          	4.218906    	19          	res33           	;
 TN0307          	4.880646    	21.1        	res34           	;
 TN0308          	0.001915    	6.5         	res35           	;
 TN0309          	0.168006    	34.4        	res36           	;
 TN0310          	0.346818    	13.5        	com96           	;
 TN0311          	0.497808    	9.3         	com97           	;
 TN0312          	0.606018    	23.2        	res37           	;
 TN0313          	0.701645    	21.2        	res38           	;
 TN0314          	0.853909    	28.8        	res39           	;
 TN0315          	0.981544    	23.7        	res40           	;
 TN0316          	1.09227     	25.8        	res41           	;
 TN0317          	1.243825    	15.4        	res42           	;
 TN0318          	1.333893    	16.3        	res43           	;
 TN0319          	1.451043    	31.9        	res44           	;
 TN0320          	2.204683    	19.8        	res45           	;
 TN0321          	0           	23.9        	com98           	;
 TN0322          	0.139867    	38.7        	res46           	;
 TN0323          	0.32179     	69.9        	res47           	;
 TN0324          	0.474995    	42.7        	res48           	;
 TN0325          	0.593209    	40.7        	res49           	;
 TN0326          	0.701195    	41.6        	res50           	;
 TN0327          	0.83554     	21          	com99           	;
 TN0328          	0.96898     	42.8        	res51           	;
 TN0329          	1.098071    	28.4        	res52           	;
 TN0330          	1.245383    	18.8        	com100          	;
 TN0331          	1.383743    	44          	res53           	;
 TN0332          	1.49426     	113.8       	res54           	;
 TN0333          	1.619199    	89          	res55           	;
 TN0334          	0.052459    	26.9        	com101          	;
 TN0335          	0.141336    	26.6        	res56           	;
 TN0336          	0.298984    	37.4        	res57           	;
 TN0337          	0.457909    	27.9        	res58           	;
 TN0338          	0.59167     	20.8        	res59           	;
 TN0339          	0.701416    	14.2        	res60           	;
 TN0340          	0.832129    	8.3         	res61           	;
 TN0341          	1.030813    	66.3        	res62           	;
 TN0342          	0.495227    	65.1        	res63           	;
 TN0343          	0.462219    	27          	res64           	;
 TN0344          	0.295043    	57          	res65           	;
 TN0345          	0.29949     	5.5         	res66           	;
 TN0346          	0.156306    	29.3        	res67           	;
 TN0347          	0.147068    	29.9        	res68           	;
 TN0348          	0.034006    	15.2        	res69           	;
 IN0349          	0.794558    	0           	                	;
 IN0350          	0.804799    	0           	                	;
 IN0351          	0.846086    	0           	                	;
 IN0352          	12.375775   	0           	                	;
 IN0353          	18.964085   	0           	                	;
 IN0354          	3.136081    	0           	                	;
 IN0355          	0.960778    	0           	                	;
 IN0356          	1.091802    	0           	                	;
 IN0357          	9.30109     	0           	                	;
 IN0358          	24.89492    	0           	                	;
 IN0359          	1.193325    	0           	                	;
 IN0360          	17.886263   	0           	                	;
 IN0361          	32.055656   	0           	                	;
 IN0362          	8.183961    	0           	                	;
 IN0363          	24.834856   	0           	                	;
 IN0364          	37.415745   	0           	                	;
 IN0365          	4.79242     	0           	                	;
 IN0366          	0.71217     	0           	                	;
 IN0367          	0.677412    	0           	                	;
 IN0368          	12.952422   	0           	                	;
 IN0369          	14.008207   	0           	                	;
 IN0370          	34.453751   	0           	                	;
 IN0371          	30.386362   	0           	                	;
 IN0372          	44.384586   	0           	                	;
 IN0373          	51.179031   	0           	                	;
 IN0374          	65.810234   	0           	                	;
 IN0375          	58.393391   	0           	                	;
 IN0376          	52.440842   	0           	                	;
 IN0377          	45.896053   	0           	                	;
 IN0378          	38.506077   	0           	                	;
 IN0379          	32.121696   	0           	                	;
 IN0380          	27.157631   	0           	                	;
 IN0381          	43.088856   	0           	                	;
 IN0382          	47.458172   	0           	                	;
 IN0383          	36.696632   	0           	                	;
 IN0384          	27.731251   	0           	                	;
 IN0385          	18.818617   	0           	                	;
 IN0386          	12.026336   	0           	                	;
 IN0387          	0.600394    	0           	                	;
 IN0388          	0.575671    	0           	                	;
 IN0389          	0.463532    	0           	                	;
 IN0390          	0.493186    	0           	                	;
 IN0391          	6.027777    	0           	                	;
 IN0392          	15.161686   	0           	                	;
 IN0393          	21.160345   	0           	                	;
 IN0394          	1.104611    	0           	                	;
 IN0395          	1.196761    	0           	                	;
 IN0396          	0.98257     	0           	                	;
 IN0397          	0.685574    	0           	                	;
 IN0398          	61.278816   	0           	                	;
 IN0399          	79.734016   	0           	                	;
 IN0400          	107.563995  	0           	                	;
 IN0401          	119.79689   	0           	                	;
 IN0402          	77.368385   	0           	                	;
 IN0403          	99.939606   	0           	                	;
 IN0404          	88.353355   	0           	                	;
 IN0405          	109.905602  	0           	                	;
 IN0407          	130.967606  	0           	                	;
 IN0408          	118.987274  	0           	                	;
 IN0409          	69.19458    	0           	                	;
 IN0410          	79.783676   	0           	                	;
 IN0411          	91.135498   	0           	                	;
 IN0412          	83.123619   	0           	                	;
 IN0413          	72.376755   	0           	                	;
 IN0414          	61.815453   	0           	                	;
 IN0415          	55.439987   	0           	                	;
 IN0416          	64.79744    	0           	                	;
 IN0417          	75.935738   	0           	                	;
 IN0418          	93.490395   	0           	                	;
 IN0419          	100.917358  	0           	                	;
 IN0420          	83.635963   	0           	                	;
 IN0421          	70.819031   	0           	                	;
 IN0422          	56.623058   	0           	                	;
 IN0423          	51.83403    	0           	                	;
 IN0424          	64.022331   	0           	                	;
 IN0425          	58.844082   	0           	                	;
 IN0426          	45.421886   	0           	                	;
 IN0427          	37.469414   	0           	                	;
 IN0428          	31.073381   	0           	                	;
 IN0429          	47.041805   	0           	                	;
 IN0430          	39.641304   	0           	                	;
 IN0431          	25.121958   	0           	                	;
 IN0432          	0.206401    	0           	                	;
 IN0433          	0.117918    	0           	                	;
 IN0434          	0.224587    	0           	                	;
 IN0435          	0.357455    	0           	                	;
 IN0436          	0.34591     	0           	                	;
 IN0437          	0.389008    	0           	                	;
 IN0438          	0.239878    	0           	                	;
 IN0439          	0.123561    	0           	                	;
 IN0440          	0.043008    	0           	                	;
 IN0441          	0.03919     	0           	                	;
 IN0442          	0.046898    	0           	                	;
 IN0443          	0.458156    	0           	                	;
 IN0444          	0.571455    	0           	                	;
 IN0445          	2.110912    	0           	                	;
 IN0446          	10.765154   	0           	                	;
 IN0447          	5.422394    	0           	                	;
 IN0448          	0.288194    	0           	                	;
 IN0449          	0.134223    	0           	                	;
 IN0450          	0.034192    	0           	                	;
 IN0451          	0.03953     	0           	                	;
 IN0452          	0.474934    	0           	                	;
 IN0453          	7.358027    	0           	                	;
 IN0454          	0.622987    	0           	                	;
 IN0455          	8.555347    	0           	                	;
 IN0456          	14.681313   	0           	                	;
 IN0457          	139.037369  	0           	                	;
 IN0458          	96.596848   	0           	                	;
 IN0459          	21.102901   	0           	                	;
 IN0460          	12.961535   	0           	                	;
 IN0461          	19.93973    	0           	                	;
 IN0462          	29.593199   	0           	                	;
 IN0463          	0.055224    	0           	                	;
 TN0464          	0.088189    	2.9         	ind15           	;
 TN0465          	0.0233      	2.6         	ind16           	;
 TN0466          	0.023934    	6.8         	ind17           	;
 TN0467          	0.012919    	2.5         	ind18           	;
 TN0468          	0.014761    	2.8         	ind19           	;