[TITLE]

[JUNCTIONS]
;ID                      Elevation       Demand Pattern                 
 15                                43  0.024528445055 base                       ;
 16                                46  0.024528445055 base                       ;
 17                                46  0.022324030931 base                       ;
 18                                48  0.024528445055 base                       ;
 19                                49  0.026744514521 base                       ;
 20                                45  0.024528445055 base                       ;
 21                                47  0.024528445055 base                       ;
 23                                41  0.026582270248 base                       ;
 24                                48  0.026744514521 base                       ;
 25                                48  0.053166314052 base                       ;
 29                                47  0.026582270248 base                       ;
 30                                46  0.026582270248 base                       ;
 45                                45  0.024528445055 base                       ;
 46                                48  0.024528445055 base                       ;
 47                                46  0.024528445055 base                       ;
 48                                46  0.024528445055 base                       ;
 49                                46  0.026744514521 base                       ;
 50                                48  0.026744514521 base                       ;
 51                                46  0.024528445055 base                       ;
 55                                49  0.030843123293 base                       ;
 60                                48  0.024528445055 base                       ;
 61                                48  0.024528445055 base                       ;
 62                                48  0.024528445055 base                       ;
 71                                50  0.026582270248 base                       ;
 72                                48  0.026582270248 base                       ;
 73                                46  0.026582270248 base                       ;
 74                                49  0.026582270248 base                       ;
 101                               46  0.022324030931 base                       ;
 102                               46  0.026582270248 base                       ;
 103                               48  0.024528445055 base                       ;
 104                               48  0.024528445055 base                       ;
 105                               49  0.026744514521 base                       ;
 106                               49  0.026582270248 base                       ;
 114                               48  0.024528445055 base                       ;
 115                               49  0.024528445055 base                       ;
 119                               45  0.026582270248 base                       ;
 120                               49  0.026744514521 base                       ;
 121                               49  0.026744514521 base                       ;
 122                               47  0.026744514521 base                       ;
 123                               46  0.026744514521 base                       ;
 124                               48  0.026744514521 base                       ;
 132                               47  0.053166314052 base                       ;
 133                               44  0.026744514521 base                       ;
 134                               45  0.026744514521 base                       ;
 135                               49  0.026744514521 base                       ;
 136                               48  0.026744514521 base                       ;
 137                               48  0.026744514521 base                       ;
 158                               44  0.022324030931 base                       ;
 159                               49  0.024528445055 base                       ;
 160                               44  0.022324030931 base                       ;
 161                               46  0.022324030931 base                       ;
 162                               48  0.024528445055 base                       ;
 163                               48  0.024528445055 base                       ;
 164                               48  0.024528445055 base                       ;
 165                               49  0.024528445055 base                       ;
 166                               47  0.026744514521 base                       ;
 167                               47  0.026744514521 base                       ;
 168                               49  0.026744514521 base                       ;
 173                               49  0.026744514521 base                       ;
 175                               49  0.026744514521 base                       ;
 176                               50  0.026744514521 base                       ;
 180                               47  0.026744514521 base                       ;
 181                               45  0.026744514521 base                       ;
 182                               48  0.026744514521 base                       ;
 183                               49  0.026744514521 base                       ;
 184                               49  0.026744514521 base                       ;
 192                               41  0.024528445055 base                       ;
 197                               48  0.024528445055 base                       ;
 198                               48  0.024528445055 base                       ;
 199                               48  0.024528445055 base                       ;
 200                               48  0.024528445055 base                       ;
 201                               47  0.026582270248 base                       ;
 202                               43  0.026582270248 base                       ;
 203                               44  0.022324030931 base                       ;
 205                               48  0.024528445055 base                       ;
 210                               46  0.026582270248 base                       ;
 211                               49  0.026582270248 base                       ;
 212                               45  0.024528445055 base                       ;
 213                               46  0.024528445055 base                       ;
 214                               47  0.024528445055 base                       ;
 215                               43  0.053166314052 base                       ;
 216                               48  0.053166314052 base                       ;
 217                               45  0.024528445055 base                       ;
 218                               45  0.024528445055 base                       ;
 219                               48  0.024528445055 base                       ;
 222                               43  0.024528445055 base                       ;
 231                               47  0.024528445055 base                       ;
 232                               49  0.026744514521 base                       ;
 238                               47  0.053166314052 base                       ;
 239                               47  0.053166314052 base                       ;
 240                               52  0.026744514521 base                       ;
 246                               43  0.024528445055 base                       ;
 248                               48  0.024528445055 base                       ;
 249                               47  0.026744514521 base                       ;
 255                               50  0.026744514521 base                       ;
 256                               44  0.026744514521 base                       ;
 257                               49  0.024528445055 base                       ;
 258                               44  0.022324030931 base                       ;
 259                               44  0.022324030931 base                       ;
 261                               48  0.024528445055 base                       ;
 280                               47  0.030843123293 base                       ;
 281                               47  0.030843123293 base                       ;
 282                               46            0.02 base                       ;
 283                               49            0.02 base                       ;
 284                               49            0.02 base                       ;
 287                               48  0.026744514521 base                       ;
 289                               50  0.026744514521 base                       ;
 291                               52  0.030843123293 base                       ;
 294                               46  0.026744514521 base                       ;
 295                               48  0.024528445055 base                       ;
 296                               49  0.026744514521 base                       ;
 299                               44  0.022324030931 base                       ;
 301                               46  0.026744514521 base                       ;
 311                               49  0.024528445055 base                       ;
 314                               45  0.026744514521 base                       ;
 315                               48  0.024528445055 base                       ;
 316                               49  0.022324030931 base                       ;
 317                               50  0.026744514521 base                       ;
 326                               49  0.053166314052 base                       ;
 327                               47  0.053166314052 base                       ;
 328                               39  0.024528445055 base                       ;
 329                               48  0.024528445055 base                       ;
 339                               51  0.053166314052 base                       ;
 343                               47  0.053166314052 base                       ;
 346                               49  0.024528445055 base                       ;
 348                               49  0.053166314052 base                       ;
 349                               44  0.053166314052 base                       ;
 351                               51  0.026744514521 base                       ;
 359                               49  0.026582270248 base                       ;
 367                               43  0.024528445055 base                       ;
 368                               47  0.023073724052 base                       ;
 369                               48  0.053166314052 base                       ;
 10                                49  0.022208515704 base                       ;
 11                                49  0.022208515704 base                       ;
 12                                47  0.022208515704 base                       ;
 22                                46  0.026582270248 base                       ;
 36                                48  0.022208515704 base                       ;
 37                                48  0.022208515704 base                       ;
 38                                47  0.022208515704 base                       ;
 39                                49  0.022208515704 base                       ;
 40                                48  0.022208515704 base                       ;
 41                                48  0.022208515704 base                       ;
 54                                48  0.030843123293 base                       ;
 56                                50  0.030843123293 base                       ;
 57                                49  0.030843123293 base                       ;
 58                                49  0.030843123293 base                       ;
 59                                47  0.030843123293 base                       ;
 63                                47  0.030843123293 base                       ;
 64                                38  0.022208515704 base                       ;
 66                                45  0.022208515704 base                       ;
 67                                45  0.022208515704 base                       ;
 68                                45  0.022208515704 base                       ;
 75                                49  0.026582270248 base                       ;
 76                                47  0.026582270248 base                       ;
 77                                47  0.026582270248 base                       ;
 78                                44  0.026582270248 base                       ;
 82                                52            0.02 base                       ;
 83                                50            0.02 base                       ;
 110                               47  0.022208515704 base                       ;
 111                               45  0.022208515704 base                       ;
 138                               44            0.02 base                       ;
 141                               46  0.026582270248 base                       ;
 169                               47  0.022208515704 base                       ;
 170                               48  0.022208515704 base                       ;
 171                               49  0.022208515704 base                       ;
 172                               49  0.022208515704 base                       ;
 174                               44  0.026582270248 base                       ;
 188                               44  0.022208515704 base                       ;
 189                               44  0.022208515704 base                       ;
 190                               46  0.022208515704 base                       ;
 191                               44  0.022208515704 base                       ;
 193                               48  0.022208515704 base                       ;
 206                               47  0.022208515704 base                       ;
 223                               47  0.030843123293 base                       ;
 224                               47  0.030843123293 base                       ;
 225                               48  0.030843123293 base                       ;
 241                               44  0.030843123293 base                       ;
 242                               46  0.022208515704 base                       ;
 243                               43  0.022208515704 base                       ;
 244                               38  0.022208515704 base                       ;
 245                               45  0.022208515704 base                       ;
 247                               47  0.030843123293 base                       ;
 252                               53  0.022208515704 base                       ;
 268                               52  0.030843123293 base                       ;
 269                               50  0.030843123293 base                       ;
 285                               48  0.030843123293 base                       ;
 286                               48  0.030843123293 base                       ;
 292                               49  0.030843123293 base                       ;
 305                               47  0.022208515704 base                       ;
 306                               51  0.022208515704 base                       ;
 307                               51  0.022208515704 base                       ;
 308                               51  0.022208515704 base                       ;
 309                               46  0.022208515704 base                       ;
 310                               46  0.022208515704 base                       ;
 312                               48  0.022208515704 base                       ;
 313                               48  0.030843123293 base                       ;
 319                               44  0.030843123293 base                       ;
 320                               38  0.022208515704 base                       ;
 321                               45  0.022208515704 base                       ;
 322                               48  0.022208515704 base                       ;
 323                               48  0.022208515704 base                       ;
 332                               47  0.030843123293 base                       ;
 333                               44  0.022208515704 base                       ;
 334                               44  0.022208515704 base                       ;
 335                               49  0.022208515704 base                       ;
 336                               46  0.022208515704 base                       ;
 337                               46  0.022208515704 base                       ;
 338                               42  0.022208515704 base                       ;
 341                               48  0.022208515704 base                       ;
 342                               49  0.022208515704 base                       ;
 345                               40  0.022208515704 base                       ;
 347                               48  0.022208515704 base                       ;
 350                               49  0.030843123293 base                       ;
 352                               48  0.030843123293 base                       ;
 358                               48  0.030843123293 base                       ;
 365                               49  0.022208515704 base                       ;
 263                               46  0.026077719147 base                       ;
 265                               50  0.026077719147 base                       ;
 266                               50  0.026077719147 base                       ;
 267                               52  0.026077719147 base                       ;
 151                               48  0.026077719147 base                       ;
 152                               46  0.026077719147 base                       ;
 153                               50  0.026077719147 base                       ;
 154                               50  0.026077719147 base                       ;
 155                               49  0.026077719147 base                       ;
 52                                49  0.023073724052 base                       ;
 53                                46  0.023073724052 base                       ;
 194                               50  0.026077719147 base                       ;
 195                               46  0.026077719147 base                       ;
 196                               49  0.026077719147 base                       ;
 324                               46  0.026077719147 base                       ;
 330                               46  0.026077719147 base                       ;
 204                               50  0.026077719147 base                       ;
 207                               48  0.023073724052 base                       ;
 208                               50  0.026077719147 base                       ;
 209                               47  0.023073724052 base                       ;
 91                                58  0.026077719147 base                       ;
 92                                50  0.026077719147 base                       ;
 220                               46  0.026077719147 base                       ;
 221                               48  0.026077719147 base                       ;
 362                               47  0.026077719147 base                       ;
 107                               48  0.023073724052 base                       ;
 108                               52  0.023073724052 base                       ;
 109                               45  0.023073724052 base                       ;
 363                               51  0.023073724052 base                       ;
 364                               48  0.023073724052 base                       ;
 112                               46  0.023073724052 base                       ;
 113                               46  0.023073724052 base                       ;
 370                               47  0.026077719147 base                       ;
 371                               55  0.026077719147 base                       ;
 373                               47  0.023073724052 base                       ;
 376                               47  0.026077719147 base                       ;
 253                               46  0.023073724052 base                       ;
 254                               41  0.023073724052 base                       ;
 0                                 46  0.026582270248 base                       ;
 1                                 46  0.022324030931 base                       ;
 2                                 43  0.026582270248 base                       ;
 3                                 40  0.024079805612 base                       ;
 4                                 46  0.024079805612 base                       ;
 5                                 43  0.024079805612 base                       ;
 6                                 38  0.024079805612 base                       ;
 7                                 42  0.024079805612 base                       ;
 26                                36  0.024079805612 base                       ;
 27                                34  0.024079805612 base                       ;
 28                                36  0.024079805612 base                       ;
 42                                45  0.022324030931 base                       ;
 43                                45  0.022324030931 base                       ;
 44                                45  0.022324030931 base                       ;
 65                                38  0.030843123293 base                       ;
 69                                46  0.024079805612 base                       ;
 70                                42  0.024079805612 base                       ;
 79                                43  0.024079805612 base                       ;
 80                                40  0.024079805612 base                       ;
 81                                40  0.024079805612 base                       ;
 84                                38  0.026077719147 base                       ;
 85                                38  0.026077719147 base                       ;
 86                                46  0.024079805612 base                       ;
 87                                47  0.024079805612 base                       ;
 88                                44  0.026077719147 base                       ;
 89                                44  0.024079805612 base                       ;
 90                                46            0.02 base                       ;
 93                                33  0.024079805612 base                       ;
 94                                41  0.022324030931 base                       ;
 95                                42  0.026582270248 base                       ;
 96                                43  0.026582270248 base                       ;
 97                                43  0.026582270248 base                       ;
 98                                45  0.026582270248 base                       ;
 99                                45  0.026582270248 base                       ;
 100                               45  0.022324030931 base                       ;
 116                               36  0.026582270248 base                       ;
 117                               47  0.026582270248 base                       ;
 118                               45  0.026582270248 base                       ;
 125                               40  0.022324030931 base                       ;
 126                               40  0.022324030931 base                       ;
 127                               48  0.022324030931 base                       ;
 128                               44  0.024079805612 base                       ;
 129                               47  0.024079805612 base                       ;
 130                               43  0.024079805612 base                       ;
 131                               44  0.024079805612 base                       ;
 139                               44  0.024079805612 base                       ;
 140                               39  0.024079805612 base                       ;
 142                               52  0.022324030931 base                       ;
 143                               45  0.022324030931 base                       ;
 144                               45  0.022324030931 base                       ;
 145                               52  0.022324030931 base                       ;
 146                               52  0.022324030931 base                       ;
 147                               45  0.022324030931 base                       ;
 148                               41  0.022324030931 base                       ;
 149                               47  0.024079805612 base                       ;
 150                               48  0.024079805612 base                       ;
 177                               46  0.022324030931 base                       ;
 178                               46  0.022324030931 base                       ;
 179                               45  0.022324030931 base                       ;
 185                               49  0.024079805612 base                       ;
 186                               46  0.024079805612 base                       ;
 187                               49  0.024079805612 base                       ;
 226                               47  0.026582270248 base                       ;
 227                               45  0.026582270248 base                       ;
 228                               45  0.026582270248 base                       ;
 229                               45  0.026582270248 base                       ;
 230                               46  0.024079805612 base                       ;
 250                               40  0.022324030931 base                       ;
 251                               46  0.022324030931 base                       ;
 260                               43  0.026077719147 base                       ;
 262                               34  0.026077719147 base                       ;
 264                               48  0.024079805612 base                       ;
 270                               47  0.022324030931 base                       ;
 271                               42  0.022324030931 base                       ;
 272                               42  0.022324030931 base                       ;
 273                               45  0.022324030931 base                       ;
 274                               45  0.022324030931 base                       ;
 275                               45  0.022324030931 base                       ;
 277                               44  0.024079805612 base                       ;
 278                               47  0.026582270248 base                       ;
 279                               43  0.026582270248 base                       ;
 290                               35  0.030843123293 base                       ;
 297                               46  0.022324030931 base                       ;
 298                               48  0.022324030931 base                       ;
 300                               45  0.022324030931 base                       ;
 302                               45  0.022324030931 base                       ;
 303                               46  0.022324030931 base                       ;
 304                               42  0.022324030931 base                       ;
 318                               45  0.022324030931 base                       ;
 325                               39  0.024079805612 base                       ;
 331                               52  0.022324030931 base                       ;
 340                               47  0.024079805612 base                       ;
 344                               47  0.026077719147 base                       ;
 353                               43  0.024079805612 base                       ;
 354                               51  0.026077719147 base                       ;
 355                               46  0.024079805612 base                       ;
 356                               38  0.024079805612 base                       ;
 357                               47  0.024079805612 base                       ;
 366                               32  0.026077719147 base                       ;
 8                                 49  0.026077719147 base                       ;
 9                                 44  0.026077719147 base                       ;
 13                                52  0.026077719147 base                       ;
 14                                44  0.026077719147 base                       ;
 276                               48  0.026077719147 base                       ;
 156                               50  0.026077719147 base                       ;
 157                               50  0.026077719147 base                       ;