; Filename: Input Files/cities\clinton\clinton.inp
; WNTR: 1.0.0
; Created: 2025-02-03 11:34:53
[TITLE]

[JUNCTIONS]
;ID                      Elevation       Demand Pattern                 
 516                               47          0.0036 base                       ;
 9                                 49   0.15602742936 base                       ;
 10                                47          0.0108 base                       ;
 411                               48  0.082001758882 base                       ;
 36                                48  0.031994271829 base                       ;
 37                                49  0.019231618789 base                       ;
 38                                49  0.020645388925 base                       ;
 39                                47  0.027785909512 base                       ;
 44                                49  0.090661563647 base                       ;
 566                               48  0.021205318545 base                       ;
 458                               47 0.0043029979532 base                       ;
 459                               48 0.0022584789388 base                       ;
 346                               48  0.047481566515 base                       ;
 347                               47   0.29725853903 base                       ;
 97                                48          0.0162 base                       ;
 98                                49   0.13758281985 base                       ;
 99                                49  0.032635654685 base                       ;
 745                               48    0.1057297013 base                       ;
 746                               47            0.02 base                       ;
 520                               49  0.082874339617 base                       ;
 18                                48   0.14361713732 base                       ;
 20                                49  0.082269203169 base                       ;
 27                                49  0.034991187836 base                       ;
 28                                49   0.04646026742 base                       ;
 29                                49  0.088195488742 base                       ;
 49                                43  0.029940842135 base                       ;
 66                                48  0.083266766326 base                       ;
 67                                48  0.020606843723 base                       ;
 68                                52  0.050128966136 base                       ;
 69                                49 0.0083929554947 base                       ;
 70                                50   0.10778277268 base                       ;
 582                               49  0.028358891029 base                       ;
 72                                48  0.041547464597 base                       ;
 584                               48  0.029876779893 base                       ;
 583                               48  0.056779477781 base                       ;
 593                               53  0.049155357595 base                       ;
 85                                50  0.053238995625 base                       ;
 86                                51   0.04286772298 base                       ;
 87                                52  0.059866604595 base                       ;
 88                                49    0.1182273915 base                       ;
 89                                49  0.053906390191 base                       ;
 94                                44  0.042577267451 base                       ;
 95                                42 0.0075839094679 base                       ;
 96                                36  0.069261868429 base                       ;
 608                               45  0.002246414663 base                       ;
 609                               47 0.0074840747451 base                       ;
 100                               49  0.019262157622 base                       ;
 101                               49  0.043495585587 base                       ;
 102                               47  0.027357442158 base                       ;
 105                               50  0.058271213468 base                       ;
 106                               52   0.02792323478 base                       ;
 107                               47   0.01086427302 base                       ;
 108                               45   0.11892516785 base                       ;
 617                               45 0.0093504598393 base                       ;
 112                               50   0.19500864827 base                       ;
 113                               48   0.15091455066 base                       ;
 140                               50   0.13292577955 base                       ;
 141                               49  0.069631717025 base                       ;
 668                               51  0.052393407403 base                       ;
 669                               51 0.0066541703434 base                       ;
 670                               50  0.053034762098 base                       ;
 172                               48  0.052412153862 base                       ;
 174                               48   0.04310896017 base                       ;
 688                               47  0.089406358024 base                       ;
 692                               50  0.031522097099 base                       ;
 693                               51   0.02384458219 base                       ;
 195                               49  0.046117996157 base                       ;
 196                               49  0.037667294392 base                       ;
 197                               48  0.035626959602 base                       ;
 198                               48  0.049115194848 base                       ;
 199                               47   0.02582194421 base                       ;
 707                               49  0.096282809222 base                       ;
 201                               45  0.020647606138 base                       ;
 708                               50   0.10246375651 base                       ;
 709                               49  0.017404553519 base                       ;
 712                               46  0.082850800467 base                       ;
 725                               36   0.12599252758 base                       ;
 726                               43  0.062037365835 base                       ;
 727                               36  0.044654463625 base                       ;
 217                               47  0.022196936639 base                       ;
 218                               49  0.017790774905 base                       ;
 219                               48  0.051872560874 base                       ;
 220                               45  0.012013854271 base                       ;
 223                               48 0.0078994582631 base                       ;
 742                               48  0.073065168855 base                       ;
 269                               50  0.019449306821 base                       ;
 270                               49  0.075186235012 base                       ;
 271                               48  0.025054233025 base                       ;
 293                               49  0.027499474881 base                       ;
 295                               48   0.02548281338 base                       ;
 296                               47  0.016475160381 base                       ;
 297                               46   0.10188372539 base                       ;
 298                               47  0.055564305399 base                       ;
 301                               49  0.034584882611 base                       ;
 309                               48  0.033165774307 base                       ;
 330                               53   0.07148566805 base                       ;
 343                               50  0.037355430416 base                       ;
 348                               47  0.082418591187 base                       ;
 349                               47  0.058856678311 base                       ;
 362                               39  0.039033580459 base                       ;
 365                               51  0.044296539196 base                       ;
 367                               51  0.029835261021 base                       ;
 368                               49  0.056063712646 base                       ;
 386                               48  0.024891769701 base                       ;
 387                               51  0.091690813841 base                       ;
 392                               48  0.019535587122 base                       ;
 393                               48  0.019548073015 base                       ;
 394                               48  0.052693438805 base                       ;
 395                               49  0.020900832689 base                       ;
 398                               48  0.058551096443 base                       ;
 410                               48     0.067039917 base                       ;
 413                               42   0.02879224834 base                       ;
 414                               48  0.028164628523 base                       ;
 415                               48  0.022079979756 base                       ;
 416                               48  0.020192289995 base                       ;
 428                               48   0.11531924426 base                       ;
 432                               47   0.02028699226 base                       ;
 433                               48  0.026851879498 base                       ;
 434                               49  0.030773153871 base                       ;
 435                               47  0.026747716323 base                       ;
 436                               46  0.015122649624 base                       ;
 437                               44  0.043588116284 base                       ;
 444                               48  0.021276708403 base                       ;
 446                               49  0.034746849276 base                       ;
 451                               42  0.014856136808 base                       ;
 454                               45  0.021317193843 base                       ;
 457                               48  0.071788884948 base                       ;
 461                               48  0.082612928315 base                       ;
 486                               49   0.05468797212 base                       ;
 487                               49  0.048893934119 base                       ;
 6                                 49   0.17125227576 base                       ;
 7                                 47  0.056573785795 base                       ;
 523                               49  0.050501623038 base                       ;
 12                                51 0.0047128827666 base                       ;
 14                                41 0.0015149633282 base                       ;
 15                                41           0.002 base                       ;
 16                                41  0.029307722841 base                       ;
 22                                49  0.090954061411 base                       ;
 24                                48  0.090774111716 base                       ;
 33                                47  0.063477639894 base                       ;
 34                                46  0.014248802609 base                       ;
 35                                47  0.042780521171 base                       ;
 40                                50  0.095166526672 base                       ;
 41                                48  0.095663998623 base                       ;
 42                                47  0.034992245116 base                       ;
 560                               47          0.0054 base                       ;
 50                                47  0.045505360211 base                       ;
 54                                53  0.073606228782 base                       ;
 55                                50  0.012000930351 base                       ;
 569                               48  0.022918258271 base                       ;
 59                                49   0.14015134495 base                       ;
 76                                48  0.019618551826 base                       ;
 77                                49   0.14139200357 base                       ;
 78                                48   0.15511212119 base                       ;
 79                                48  0.090265117812 base                       ;
 80                                49    0.1460417597 base                       ;
 588                               47  0.028680199569 base                       ;
 82                                49  0.042001088539 base                       ;
 590                               47  0.020990434051 base                       ;
 591                               47   0.42631945643 base                       ;
 90                                49  0.067595241231 base                       ;
 92                                48  0.025750805936 base                       ;
 93                                47   0.06579272707 base                       ;
 103                               49  0.058878182882 base                       ;
 104                               48  0.058309991195 base                       ;
 618                               49  0.046275753869 base                       ;
 619                               49  0.019348155039 base                       ;
 622                               49  0.066385969284 base                       ;
 623                               60  0.052629086635 base                       ;
 624                               52 0.0018512690976 base                       ;
 643                               43  0.083258459247 base                       ;
 135                               47   0.40812737302 base                       ;
 649                               48  0.021730033072 base                       ;
 650                               48   0.11695401897 base                       ;
 144                               50  0.013883124767 base                       ;
 145                               48  0.053283353755 base                       ;
 658                               48   0.07184709504 base                       ;
 149                               47  0.054568690254 base                       ;
 151                               50  0.029572567984 base                       ;
 152                               51  0.035990377958 base                       ;
 153                               49  0.076922272732 base                       ;
 154                               47   0.61039050878 base                       ;
 159                               50 0.0080462957645 base                       ;
 678                               48   0.07652472433 base                       ;
 170                               49  0.066128459147 base                       ;
 171                               48  0.099749668658 base                       ;
 686                               48  0.056402873045 base                       ;
 689                               45   0.12064624561 base                       ;
 690                               49   0.13559490353 base                       ;
 189                               52   0.02883726414 base                       ;
 702                               48   0.31801094951 base                       ;
 190                               46  0.026280873675 base                       ;
 191                               48  0.026978029135 base                       ;
 192                               48 0.0076602480986 base                       ;
 193                               49  0.022543207331 base                       ;
 194                               51   0.01946676131 base                       ;
 701                               49   0.19796780051 base                       ;
 703                               49   0.13825353574 base                       ;
 706                               48  0.047656989076 base                       ;
 704                               47  0.048518743819 base                       ;
 204                               49  0.016677407399 base                       ;
 716                               48  0.032304148857 base                       ;
 717                               47   0.02506133232 base                       ;
 208                               47  0.029892888034 base                       ;
 721                               48   0.10596447256 base                       ;
 209                               48   0.27947684015 base                       ;
 210                               49  0.017365905833 base                       ;
 212                               48  0.089540971184 base                       ;
 211                               49  0.025849794344 base                       ;
 723                               50  0.029279804331 base                       ;
 221                               48   0.16105376267 base                       ;
 736                               48  0.017371555345 base                       ;
 231                               47  0.028230037064 base                       ;
 232                               49  0.026983011897 base                       ;
 233                               48  0.092940248583 base                       ;
 235                               48  0.041944781119 base                       ;
 236                               48   0.49894555458 base                       ;
 237                               47  0.069634931433 base                       ;
 238                               48   0.02167441391 base                       ;
 240                               50  0.040207294592 base                       ;
 241                               50  0.038039483708 base                       ;
 242                               52  0.038079093181 base                       ;
 243                               51  0.024862783478 base                       ;
 245                               49   0.13160241115 base                       ;
 247                               52  0.032667788632 base                       ;
 253                               47   0.36438370271 base                       ;
 254                               45           0.002 base                       ;
 255                               49  0.068640797906 base                       ;
 256                               50  0.030872552386 base                       ;
 257                               49  0.068834429384 base                       ;
 260                               45  0.089205591873 base                       ;
 266                               48  0.019580581505 base                       ;
 276                               47   0.09016499166 base                       ;
 290                               50  0.062128395822 base                       ;
 292                               51   0.08938364629 base                       ;
 304                               48  0.071420831386 base                       ;
 305                               47  0.035294285476 base                       ;
 306                               49  0.035355623117 base                       ;
 311                               51  0.024469195045 base                       ;
 312                               50  0.038203612081 base                       ;
 313                               46  0.087301861489 base                       ;
 314                               50  0.046059529698 base                       ;
 316                               49    0.7216880436 base                       ;
 342                               50  0.046205421854 base                       ;
 344                               49   0.03374700337 base                       ;
 345                               49   0.11859991386 base                       ;
 355                               46  0.095446073096 base                       ;
 356                               48   0.10547450131 base                       ;
 358                               47  0.012784791969 base                       ;
 359                               47   0.13979497846 base                       ;
 360                               50  0.011463684268 base                       ;
 361                               51  0.072884397534 base                       ;
 366                               47   0.11671977112 base                       ;
 372                               50    0.3679486842 base                       ;
 377                               49   0.01798331477 base                       ;
 378                               49  0.047927530979 base                       ;
 382                               51  0.045036921278 base                       ;
 397                               50  0.050388034985 base                       ;
 401                               48  0.015227212382 base                       ;
 402                               47  0.081819360662 base                       ;
 405                               49  0.057288401445 base                       ;
 406                               48  0.011101039816 base                       ;
 420                               49  0.025029164168 base                       ;
 421                               48  0.014494424288 base                       ;
 429                               43  0.022757003045 base                       ;
 453                               50  0.043806795083 base                       ;
 455                               49  0.097749595878 base                       ;
 456                               46  0.036488281167 base                       ;
 460                               52  0.099676964524 base                       ;
 465                               47   0.05540645023 base                       ;
 494                               48  0.061003181961 base                       ;
 496                               40           0.002 base                       ;
 497                               42           0.002 base                       ;
 498                               46           0.002 base                       ;
 499                               48           0.002 base                       ;
 500                               45  0.031407563911 base                       ;
 501                               47  0.025037782056 base                       ;
 502                               41  0.010229306961 base                       ;
 503                               46           0.002 base                       ;
 505                               45   0.00267539168 base                       ;
 0                                 47   0.14422679163 base                       ;
 1                                 46  0.032267219362 base                       ;
 2                                 44  0.030335670284 base                       ;
 3                                 44          0.0054 base                       ;
 4                                 44           0.004 base                       ;
 526                               34  0.054072812071 base                       ;
 19                                46          0.0432 base                       ;
 577                               51   0.16401772793 base                       ;
 73                                45  0.019163973403 base                       ;
 74                                47  0.020162316966 base                       ;
 75                                47  0.023397819045 base                       ;
 601                               46          0.0022 base                       ;
 602                               46  0.043816649312 base                       ;
 114                               45  0.043003939705 base                       ;
 115                               47  0.055539173827 base                       ;
 116                               46   0.10699808862 base                       ;
 126                               40  0.049374360048 base                       ;
 127                               39   0.18441267324 base                       ;
 128                               42  0.046513253083 base                       ;
 129                               46          0.0054 base                       ;
 130                               46  0.089896049832 base                       ;
 131                               49  0.033008856973 base                       ;
 132                               46  0.092043073877 base                       ;
 133                               47  0.050067983219 base                       ;
 134                               45  0.078307943348 base                       ;
 646                               51   0.16011579182 base                       ;
 645                               53  0.024800950611 base                       ;
 147                               47  0.066782444809 base                       ;
 148                               47  0.063153394113 base                       ;
 155                               42  0.029860939168 base                       ;
 156                               46  0.023319937194 base                       ;
 157                               47  0.026114103602 base                       ;
 674                               49       0.6136443 base                       ;
 675                               48  0.069488691092 base                       ;
 175                               49  0.059899623568 base                       ;
 176                               47  0.062826995187 base                       ;
 177                               49  0.032032457438 base                       ;
 178                               47  0.059406551776 base                       ;
 179                               48  0.028863760974 base                       ;
 180                               46   0.02842034815 base                       ;
 694                               47  0.056262712505 base                       ;
 696                               45   0.28874063674 base                       ;
 697                               46          0.0022 base                       ;
 700                               45  0.024195429596 base                       ;
 205                               49  0.022288150768 base                       ;
 206                               42  0.021986499976 base                       ;
 207                               47  0.064648544621 base                       ;
 234                               44 0.00091641039784 base                       ;
 272                               48   0.27087116326 base                       ;
 273                               45  0.051673772796 base                       ;
 274                               47  0.037978144019 base                       ;
 275                               46  0.062408740139 base                       ;
 279                               44   0.20249437511 base                       ;
 307                               43  0.018193684297 base                       ;
 308                               47  0.016069709575 base                       ;
 315                               46  0.053806469695 base                       ;
 319                               33  0.045733709549 base                       ;
 331                               47  0.096179681436 base                       ;
 332                               45  0.022680808242 base                       ;
 333                               41  0.021106832517 base                       ;
 334                               46  0.021802567007 base                       ;
 335                               48  0.054461711889 base                       ;
 339                               48  0.094423228243 base                       ;
 340                               47  0.035092470233 base                       ;
 341                               45   0.12661189767 base                       ;
 374                               44 0.0018781724941 base                       ;
 375                               46  0.025651756747 base                       ;
 380                               48  0.072788766785 base                       ;
 381                               47  0.030518586915 base                       ;
 384                               48  0.027646792664 base                       ;
 385                               47  0.018885872679 base                       ;
 388                               47  0.023862464798 base                       ;
 389                               48  0.042174524513 base                       ;
 390                               44  0.078136647526 base                       ;
 409                               47  0.072856872146 base                       ;
 426                               46  0.035435819539 base                       ;
 427                               47  0.019940713885 base                       ;
 449                               51  0.022229910772 base                       ;
 470                               44  0.065919320081 base                       ;