; Filename: Input Files/MICROPOLIS_v1_inc_rest_consumers.inp
; WNTR: 0.4.0
; Created: 2022-10-14 15:09:43
[TITLE]
Pipe	Map	Name:	Pipenet6.shp
Node	Map	Name:	Epanmap.shp
Mon	Jul	18	13:25:42	2005

[JUNCTIONS]
;ID                      Elevation       Demand Pattern                 
 IN0                             1036               0 node_IN0                   ;
 TN1                             1036      3.54166668 node_TN1                   ;
 IN2                             1038               0 node_IN2                   ;
 TN3                             1037      4.88541666 node_TN3                   ;
 IN4                             1038               0 node_IN4                   ;
 TN5                             1038      0.54444444 node_TN5                   ;
 IN6                             1038               0 node_IN6                   ;
 TN7                             1038      5.53680558 node_TN7                   ;
 IN8                             1038               0 node_IN8                   ;
 TN9                             1038      0.54444444 node_TN9                   ;
 IN10                            1036               0 node_IN10                  ;
 TN11                            1036      9.11805558 node_TN11                  ;
 TN13                            1038      0.54444444 node_TN13                  ;
 TN15                            1038      5.53680558 node_TN15                  ;
 IN16                            1037               0 node_IN16                  ;
 TN17                            1037      3.25694442 node_TN17                  ;
 TN19                            1036       6.5138889 node_TN19                  ;
 TN21                            1029      3.90833334 node_TN21                  ;
 TN23                            1029      7.01388888 node_TN23                  ;
 TN25                            1024      0.54444444 node_TN25                  ;
 TN27                            1022      9.81944442 node_TN27                  ;
 TN29                            1020       4.5597222 node_TN29                  ;
 TN31                            1031      0.62500002 node_TN31                  ;
 TN33                            1035           0.375 node_TN33                  ;
 IN34                            1036               0 node_IN34                  ;
 TN35                            1036      0.25000002 node_TN35                  ;
 TN37                            1037      0.25000002 node_TN37                  ;
 TN39                            1037      0.12499998 node_TN39                  ;
 TN41                            1037      0.12499998 node_TN41                  ;
 TN43                            1037            0.75 node_TN43                  ;
 IN44                            1037               0 node_IN44                  ;
 TN45                            1037      0.49999998 node_TN45                  ;
 TN47                            1037            0.75 node_TN47                  ;
 TN49                            1036      0.25000002 node_TN49                  ;
 TN51                            1036      0.25000002 node_TN51                  ;
 IN52                            1035               0 node_IN52                  ;
 TN53                            1035           0.375 node_TN53                  ;
 TN55                            1033           0.375 node_TN55                  ;
 TN57                            1032      0.12499998 node_TN57                  ;
 IN58                            1027               0 node_IN58                  ;
 TN59                            1031      0.62500002 node_TN59                  ;
 TN61                            1027      0.49999998 node_TN61                  ;
 TN63                            1038      0.62500002 node_TN63                  ;
 IN64                            1037               0 node_IN64                  ;
 TN65                            1037      0.12499998 node_TN65                  ;
 TN67                            1037           0.375 node_TN67                  ;
 IN68                            1036               0 node_IN68                  ;
 TN69                            1036      0.12499998 node_TN69                  ;
 TN71                            1036      0.25000002 node_TN71                  ;
 IN72                            1035               0 node_IN72                  ;
 TN73                            1035      0.62500002 node_TN73                  ;
 IN74                            1033               0 node_IN74                  ;
 TN75                            1033      0.12499998 node_TN75                  ;
 TN77                            1031      0.62500002 node_TN77                  ;
 TN79                            1027      0.25000002 node_TN79                  ;
 IN80                            1024               0 node_IN80                  ;
 TN81                            1025      0.49999998 node_TN81                  ;
 TN83                            1023           0.375 node_TN83                  ;
 TN85                            1025      0.62500002 node_TN85                  ;
 TN87                            1023      0.49999998 node_TN87                  ;
 TN89                            1022      0.62500002 node_TN89                  ;
 IN90                            1020               0 node_IN90                  ;
 TN91                            1020      0.12499998 node_TN91                  ;
 TN93                            1022            0.75 node_TN93                  ;
 TN95                            1019      0.25000002 node_TN95                  ;
 TN97                            1018      0.25000002 node_TN97                  ;
 IN98                            1018               0 node_IN98                  ;
 TN99                            1017      0.12499998 node_TN99                  ;
 TN101                           1018      0.49999998 node_TN101                 ;
 TN103                           1017      0.25000002 node_TN103                 ;
 IN104                           1016               0 node_IN104                 ;
 TN105                           1016      0.25000002 node_TN105                 ;
 TN107                           1016      0.12499998 node_TN107                 ;
 TN109                           1015      0.49999998 node_TN109                 ;
 IN110                           1032               0 node_IN110                 ;
 TN111                           1035      0.12499998 node_TN111                 ;
 TN113                           1032           0.375 node_TN113                 ;
 TN115                           1037      0.62500002 node_TN115                 ;
 TN117                           1036           0.375 node_TN117                 ;
 IN118                           1038               0 node_IN118                 ;
 TN119                           1038      0.62500002 node_TN119                 ;
 IN120                           1037               0 node_IN120                 ;
 TN121                           1037      0.12499998 node_TN121                 ;
 IN122                           1038               0 node_IN122                 ;
 TN123                           1038      0.49999998 node_TN123                 ;
 TN125                           1023      0.49999998 node_TN125                 ;
 TN127                           1024      0.25000002 node_TN127                 ;
 TN129                           1025      0.49999998 node_TN129                 ;
 TN131                           1024            0.75 node_TN131                 ;
 TN133                           1025      0.62500002 node_TN133                 ;
 TN135                           1027      0.49999998 node_TN135                 ;
 TN137                           1027      0.49999998 node_TN137                 ;
 TN139                           1028      0.49999998 node_TN139                 ;
 IN140                           1030               0 node_IN140                 ;
 TN141                           1029      0.25000002 node_TN141                 ;
 TN143                           1030      0.12499998 node_TN143                 ;
 TN145                           1035      0.25000002 node_TN145                 ;
 TN147                           1036           0.375 node_TN147                 ;
 TN149                           1031            0.75 node_TN149                 ;
 IN150                           1036               0 node_IN150                 ;
 TN151                           1037            0.75 node_TN151                 ;
 IN152                           1038               0 node_IN152                 ;
 TN153                           1038            0.75 node_TN153                 ;
 TN155                           1038      0.62500002 node_TN155                 ;
 TN157                           1039      0.25000002 node_TN157                 ;
 TN159                           1037           0.375 node_TN159                 ;
 TN161                           1039      0.25000002 node_TN161                 ;
 IN162                           1040               0 node_IN162                 ;
 TN163                           1040      0.62500002 node_TN163                 ;
 IN164                           1039               0 node_IN164                 ;
 TN165                           1039            0.75 node_TN165                 ;
 TN166                           1040      0.25000002 node_TN166                 ;
 TN167                           1040           0.375 node_TN167                 ;
 TN169                           1040            0.75 node_TN169                 ;
 TN170                           1040      0.62500002 node_TN170                 ;
 TN171                           1040      0.62500002 node_TN171                 ;
 IN172                           1040               0 node_IN172                 ;
 TN173                           1040            0.75 node_TN173                 ;
 IN174                           1040               0 node_IN174                 ;
 TN175                           1040           0.375 node_TN175                 ;
 IN176                           1040               0 node_IN176                 ;
 TN177                           1040           0.375 node_TN177                 ;
 IN178                           1040               0 node_IN178                 ;
 TN179                           1040      0.49999998 node_TN179                 ;
 TN181                           1040           0.375 node_TN181                 ;
 TN182                           1040      0.49999998 node_TN182                 ;
 TN183                           1039      0.49999998 node_TN183                 ;
 TN184                           1039           0.375 node_TN184                 ;
 TN186                           1039      0.49999998 node_TN186                 ;
 TN187                           1038      0.12499998 node_TN187                 ;
 TN188                           1039           0.375 node_TN188                 ;
 TN189                           1038      0.62500002 node_TN189                 ;
 TN191                           1039      0.62500002 node_TN191                 ;
 TN193                           1039            0.75 node_TN193                 ;
 TN195                           1040           0.375 node_TN195                 ;
 TN197                           1040           0.375 node_TN197                 ;
 TN199                           1040           0.375 node_TN199                 ;
 TN201                           1040      0.25000002 node_TN201                 ;
 TN203                           1040      0.62500002 node_TN203                 ;
 TN205                           1040      0.25000002 node_TN205                 ;
 TN207                           1040      0.49999998 node_TN207                 ;
 TN209                           1040           0.375 node_TN209                 ;
 TN211                           1040      0.25000002 node_TN211                 ;
 TN213                           1039           0.375 node_TN213                 ;
 TN215                           1039            0.75 node_TN215                 ;
 TN217                           1040           0.375 node_TN217                 ;
 TN219                           1039      0.62500002 node_TN219                 ;
 TN221                           1037            0.75 node_TN221                 ;
 TN222                           1038      0.49999998 node_TN222                 ;
 TN224                           1039      0.62500002 node_TN224                 ;
 TN226                           1036      0.12499998 node_TN226                 ;
 TN227                           1035            0.75 node_TN227                 ;
 TN228                           1035           0.375 node_TN228                 ;
 TN230                           1037      0.25000002 node_TN230                 ;
 TN232                           1033      0.62500002 node_TN232                 ;
 TN234                           1032            0.75 node_TN234                 ;
 TN236                           1031            0.75 node_TN236                 ;
 TN238                           1028            0.75 node_TN238                 ;
 TN239                           1030      0.49999998 node_TN239                 ;
 TN240                           1028      0.62500002 node_TN240                 ;
 TN242                           1026      0.12499998 node_TN242                 ;
 TN243                           1025      0.25000002 node_TN243                 ;
 TN244                           1024      0.62500002 node_TN244                 ;
 TN245                           1041      0.49999998 node_TN245                 ;
 IN246                           1041               0 node_IN246                 ;
 TN247                           1041      0.12499998 node_TN247                 ;
 TN248                           1040      0.25000002 node_TN248                 ;
 TN249                           1040      0.49999998 node_TN249                 ;
 IN250                           1040               0 node_IN250                 ;
 TN251                           1040      0.25000002 node_TN251                 ;
 TN252                           1040            0.75 node_TN252                 ;
 TN253                           1040      0.25000002 node_TN253                 ;
 TN254                           1040      0.12499998 node_TN254                 ;
 IN255                           1039               0 node_IN255                 ;
 TN256                           1039           0.375 node_TN256                 ;
 TN257                           1039      0.49999998 node_TN257                 ;
 TN258                           1038           0.375 node_TN258                 ;
 TN259                           1039      0.49999998 node_TN259                 ;
 TN261                           1033      0.25000002 node_TN261                 ;
 TN262                           1036      0.25000002 node_TN262                 ;
 TN263                           1037      0.25000002 node_TN263                 ;
 TN264                           1036      0.25000002 node_TN264                 ;
 IN265                           1031               0 node_IN265                 ;
 TN266                           1030      0.62500002 node_TN266                 ;
 TN267                           1031      0.62500002 node_TN267                 ;
 TN268                           1030      0.62500002 node_TN268                 ;
 TN269                           1032      0.62500002 node_TN269                 ;
 TN271                           1027            0.75 node_TN271                 ;
 TN272                           1026            0.75 node_TN272                 ;
 TN273                           1028      0.62500002 node_TN273                 ;
 TN274                           1028      0.62500002 node_TN274                 ;
 TN276                           1020            0.75 node_TN276                 ;
 TN278                           1019            0.75 node_TN278                 ;
 TN280                           1019           0.375 node_TN280                 ;
 TN282                           1020      0.12499998 node_TN282                 ;
 TN284                           1020      0.49999998 node_TN284                 ;
 TN286                           1022      0.12499998 node_TN286                 ;
 TN288                           1022            0.75 node_TN288                 ;
 TN290                           1024            0.75 node_TN290                 ;
 TN291                           1020      0.49999998 node_TN291                 ;
 TN293                           1020      0.12499998 node_TN293                 ;
 TN294                           1020      0.49999998 node_TN294                 ;
 TN295                           1020      0.12499998 node_TN295                 ;
 TN297                           1020      0.62500002 node_TN297                 ;
 TN299                           1019      0.49999998 node_TN299                 ;
 TN300                           1019      0.62500002 node_TN300                 ;
 TN302                           1025      0.49999998 node_TN302                 ;
 TN303                           1024      0.49999998 node_TN303                 ;
 TN304                           1025      0.25000002 node_TN304                 ;
 TN305                           1026      0.25000002 node_TN305                 ;
 TN307                           1025            0.75 node_TN307                 ;
 TN308                           1023            0.75 node_TN308                 ;
 TN309                           1023      0.25000002 node_TN309                 ;
 TN310                           1025      0.25000002 node_TN310                 ;
 IN311                           1027               0 node_IN311                 ;
 TN312                           1027            0.75 node_TN312                 ;
 TN313                           1026            0.75 node_TN313                 ;
 TN314                           1027      0.49999998 node_TN314                 ;
 TN315                           1027      0.49999998 node_TN315                 ;
 IN316                           1027               0 node_IN316                 ;
 TN317                           1027      0.25000002 node_TN317                 ;
 TN318                           1026      0.25000002 node_TN318                 ;
 TN319                           1027      0.49999998 node_TN319                 ;
 TN320                           1028      0.49999998 node_TN320                 ;
 IN321                           1029               0 node_IN321                 ;
 TN322                           1029      0.25000002 node_TN322                 ;
 TN323                           1029      0.25000002 node_TN323                 ;
 TN324                           1030      0.49999998 node_TN324                 ;
 TN325                           1030      0.49999998 node_TN325                 ;
 IN326                           1032               0 node_IN326                 ;
 TN327                           1032            0.75 node_TN327                 ;
 TN328                           1031            0.75 node_TN328                 ;
 TN329                           1033      0.25000002 node_TN329                 ;
 TN330                           1033      0.25000002 node_TN330                 ;
 IN331                           1036               0 node_IN331                 ;
 TN332                           1036      0.12499998 node_TN332                 ;
 TN333                           1035      0.12499998 node_TN333                 ;
 TN334                           1037      0.12499998 node_TN334                 ;
 TN335                           1037      0.12499998 node_TN335                 ;
 IN336                           1039               0 node_IN336                 ;
 TN337                           1039           0.375 node_TN337                 ;
 TN338                           1038           0.375 node_TN338                 ;
 TN339                           1039      0.49999998 node_TN339                 ;
 TN340                           1040      0.49999998 node_TN340                 ;
 IN341                           1041               0 node_IN341                 ;
 TN342                           1041      0.12499998 node_TN342                 ;
 TN343                           1040            0.75 node_TN343                 ;
 TN344                           1042      0.49999998 node_TN344                 ;
 TN345                           1043            0.75 node_TN345                 ;
 IN346                           1044               0 node_IN346                 ;
 TN347                           1043      0.49999998 node_TN347                 ;
 TN348                           1044      0.12499998 node_TN348                 ;
 TN349                           1044      0.62500002 node_TN349                 ;
 IN350                           1044               0 node_IN350                 ;
 TN351                           1044      0.62500002 node_TN351                 ;
 IN352                           1045               0 node_IN352                 ;
 TN353                           1045      0.25000002 node_TN353                 ;
 TN354                           1045      0.25000002 node_TN354                 ;
 IN355                           1044               0 node_IN355                 ;
 TN356                           1044      0.25000002 node_TN356                 ;
 TN357                           1044      0.12499998 node_TN357                 ;
 IN358                           1043               0 node_IN358                 ;
 TN359                           1043      0.12499998 node_TN359                 ;
 TN360                           1040      0.12499998 node_TN360                 ;
 IN361                           1037               0 node_IN361                 ;
 TN362                           1038      0.12499998 node_TN362                 ;
 TN363                           1036      0.25000002 node_TN363                 ;
 IN364                           1033               0 node_IN364                 ;
 TN365                           1033      0.62500002 node_TN365                 ;
 TN366                           1032      0.25000002 node_TN366                 ;
 IN367                           1030               0 node_IN367                 ;
 TN368                           1031      0.25000002 node_TN368                 ;
 TN369                           1029      0.12499998 node_TN369                 ;
 IN370                           1028               0 node_IN370                 ;
 TN371                           1028           0.375 node_TN371                 ;
 TN372                           1027            0.75 node_TN372                 ;
 IN373                           1027               0 node_IN373                 ;
 TN374                           1027      0.25000002 node_TN374                 ;
 TN375                           1027            0.75 node_TN375                 ;
 TN379                           1044           18.75 node_TN379                 ;
 TN381                           1043           18.75 node_TN381                 ;
 TN383                           1040           18.75 node_TN383                 ;
 TN385                           1039           18.75 node_TN385                 ;
 TN387                           1044           18.75 node_TN387                 ;
 TN389                           1043           18.75 node_TN389                 ;
 TN391                           1041           18.75 node_TN391                 ;
 TN393                           1040           18.75 node_TN393                 ;
 TN395                           1045     21.87499998 node_TN395                 ;
 TN397                           1044     21.87499998 node_TN397                 ;
 TN399                           1043     21.87499998 node_TN399                 ;
 TN401                           1040     21.87499998 node_TN401                 ;
 TN403                           1044     21.87499998 node_TN403                 ;
 TN405                           1043     21.87499998 node_TN405                 ;
 TN407                           1042     21.87499998 node_TN407                 ;
 TN409                           1040     21.87499998 node_TN409                 ;
 TN411                           1030      0.12499998 node_TN411                 ;
 IN412                           1027               0 node_IN412                 ;
 TN413                           1028      0.49999998 node_TN413                 ;
 IN414                           1030               0 node_IN414                 ;
 TN415                           1031           0.375 node_TN415                 ;
 TN416                           1030      0.12499998 node_TN416                 ;
 IN417                           1033               0 node_IN417                 ;
 TN418                           1036      0.49999998 node_TN418                 ;
 TN420                           1036      0.25000002 node_TN420                 ;
 TN422                           1036      0.62500002 node_TN422                 ;
 IN423                           1035               0 node_IN423                 ;
 TN424                           1036      0.25000002 node_TN424                 ;
 TN426                           1036            0.75 node_TN426                 ;
 IN427                           1035               0 node_IN427                 ;
 TN428                           1036      0.49999998 node_TN428                 ;
 TN430                           1033      0.25000002 node_TN430                 ;
 IN431                           1033               0 node_IN431                 ;
 TN432                           1032      0.49999998 node_TN432                 ;
 TN434                           1031            0.75 node_TN434                 ;
 IN435                           1031               0 node_IN435                 ;
 TN436                           1030           0.375 node_TN436                 ;
 TN438                           1029      0.62500002 node_TN438                 ;
 TN440                           1028      0.12499998 node_TN440                 ;
 IN441                           1015               0 node_IN441                 ;
 TN442                           1015           0.375 node_TN442                 ;
 TN444                           1014      0.62500002 node_TN444                 ;
 TN446                           1015      0.12499998 node_TN446                 ;
 IN447                           1015               0 node_IN447                 ;
 TN448                           1015      0.62500002 node_TN448                 ;
 IN449                           1018               0 node_IN449                 ;
 TN450                           1016      0.62500002 node_TN450                 ;
 TN452                           1018      0.25000002 node_TN452                 ;
 TN454                           1020            0.75 node_TN454                 ;
 IN455                           1022               0 node_IN455                 ;
 TN456                           1022           0.375 node_TN456                 ;
 IN457                           1033               0 node_IN457                 ;
 TN458                           1029        100.0002 node_TN458                 ;
 TN459                           1029          49.998 node_TN459                 ;
 TN460                           1030         49.9998 node_TN460                 ;
 IN461                           1028               0 node_IN461                 ;
 TN462                           1027      0.34722222 node_TN462                 ;
 IN463                           1028               0 node_IN463                 ;
 TN464                           1028         0.35625 node_TN464                 ;
 TN466                           1026           0.375 node_TN466                 ;
 IN467                           1025               0 node_IN467                 ;
 TN468                           1025           0.375 node_TN468                 ;
 TN469                           1027           0.375 node_TN469                 ;
 TN470                           1025           0.375 node_TN470                 ;
 TN472                           1025      0.49999998 node_TN472                 ;
 TN474                           1025           0.375 node_TN474                 ;
 TN476                           1025      0.62500002 node_TN476                 ;
 TN478                           1025      0.49999998 node_TN478                 ;
 TN479                           1025           0.375 node_TN479                 ;
 TN480                           1025      0.62500002 node_TN480                 ;
 TN482                           1025           0.375 node_TN482                 ;
 TN484                           1026      0.62500002 node_TN484                 ;
 IN485                           1027               0 node_IN485                 ;
 TN486                           1026      0.49999998 node_TN486                 ;
 TN488                           1027           0.375 node_TN488                 ;
 IN489                           1029               0 node_IN489                 ;
 TN490                           1029      0.25000002 node_TN490                 ;
 TN492                           1026       0.3451389 node_TN492                 ;
 TN494                           1029      0.30555558 node_TN494                 ;