; Filename: Input Files/cities\clinton\clinton.inp
; WNTR: 1.0.0
; Created: 2025-03-12 14:33:52
[TITLE]

[JUNCTIONS]
;ID                      Elevation       Demand Pattern                 
 516                               47  0.027383942625 node_516                   ;
 9                                 49  0.079989778901 node_9                     ;
 10                                47          0.0108 node_10                    ;
 411                               48   0.14395131928 node_411                   ;
 36                                48  0.020072421715 node_36                    ;
 37                                49  0.014355411023 node_37                    ;
 38                                49 0.0049386522903 node_38                    ;
 39                                47  0.033004739066 node_39                    ;
 44                                49   0.03124348446 node_44                    ;
 566                               48  0.077450370445 node_566                   ;
 458                               47  0.081802900505 node_458                   ;
 346                               48   0.55698749336 node_346                   ;
 347                               47  0.046167217019 node_347                   ;
 97                                48          0.0162 node_97                    ;
 98                                49  0.037940777913 node_98                    ;
 99                                49  0.006580910165 node_99                    ;
 745                               48  0.014376978023 node_745                   ;
 746                               47            0.02 node_746                   ;
 6                                 49   0.15745385583 node_6                     ;
 523                               49   0.26403897925 node_523                   ;
 40                                50  0.077705844607 node_40                    ;
 41                                48   0.11222700342 node_41                    ;
 556                               49   0.25746209566 node_556                   ;
 557                               50          0.0242 node_557                   ;
 558                               47   0.17793767694 node_558                   ;
 51                                48  0.021622701153 node_51                    ;
 52                                48   0.22063517121 node_52                    ;
 54                                53  0.041645442171 node_54                    ;
 55                                50  0.013476325801 node_55                    ;
 76                                48  0.050421893788 node_76                    ;
 77                                49  0.082309609601 node_77                    ;
 78                                48  0.035906329417 node_78                    ;
 79                                48  0.091491473547 node_79                    ;
 80                                49   0.10790918356 node_80                    ;
 588                               47  0.039265226279 node_588                   ;
 82                                49  0.059955740773 node_82                    ;
 590                               47  0.036890392668 node_590                   ;
 596                               49  0.017499802919 node_596                   ;
 591                               47   0.28393150401 node_591                   ;
 595                               47          0.0108 node_595                   ;
 599                               50    0.5652361245 node_599                   ;
 597                               47  0.028907965385 node_597                   ;
 598                               43          0.0072 node_598                   ;
 90                                49  0.056713376234 node_90                    ;
 92                                48   0.04068795038 node_92                    ;
 93                                47  0.039433888291 node_93                    ;
 610                               48   0.28928805785 node_610                   ;
 623                               60          0.0526 node_623                   ;
 624                               52           0.002 node_624                   ;
 649                               48 0.0059829413767 node_649                   ;
 650                               48    0.2659675648 node_650                   ;
 651                               48  0.061118955945 node_651                   ;
 144                               50  0.017880762981 node_144                   ;
 145                               48  0.028351649847 node_145                   ;
 658                               48  0.082353112805 node_658                   ;
 151                               50  0.061742512387 node_151                   ;
 152                               51  0.053013214925 node_152                   ;
 153                               49  0.090760540841 node_153                   ;
 154                               47   0.16511574912 node_154                   ;
 165                               50   0.14830226449 node_165                   ;
 166                               47   0.33940185098 node_166                   ;
 167                               46  0.069590488913 node_167                   ;
 168                               48   0.34289292922 node_168                   ;
 169                               48   0.24638544014 node_169                   ;
 170                               49   0.13371149714 node_170                   ;
 678                               48   0.22883142901 node_678                   ;
 171                               48  0.088476597431 node_171                   ;
 689                               45  0.045507766448 node_689                   ;
 189                               52  0.028299064629 node_189                   ;
 702                               48   0.22465197554 node_702                   ;
 190                               46  0.078932297418 node_190                   ;
 191                               48   0.26486349976 node_191                   ;
 192                               48  0.093142124362 node_192                   ;
 193                               49   0.10622004282 node_193                   ;
 194                               51  0.045834652086 node_194                   ;
 703                               49   0.19650318074 node_703                   ;
 706                               48   0.36259439597 node_706                   ;
 704                               47   0.84254444256 node_704                   ;
 200                               48  0.060319544702 node_200                   ;
 203                               51  0.046944846664 node_203                   ;
 716                               48   0.15478480888 node_716                   ;
 204                               49  0.022735313373 node_204                   ;
 717                               47   0.14781934727 node_717                   ;
 719                               49            0.02 node_719                   ;
 720                               49   0.42718148133 node_720                   ;
 208                               47   0.63576007586 node_208                   ;
 209                               48  0.045498777963 node_209                   ;
 210                               49  0.020455711464 node_210                   ;
 212                               48  0.026899675654 node_212                   ;
 211                               49   0.05239027901 node_211                   ;
 736                               48  0.059949885989 node_736                   ;
 231                               47  0.032687678451 node_231                   ;
 232                               49  0.028693249516 node_232                   ;
 236                               48   0.28343842373 node_236                   ;
 247                               52  0.034299357186 node_247                   ;
 253                               47   0.34610617379 node_253                   ;
 282                               50  0.035515946125 node_282                   ;
 283                               49  0.011982671039 node_283                   ;
 284                               49   0.37647984692 node_284                   ;
 305                               47  0.018251272069 node_305                   ;
 306                               49  0.009231288668 node_306                   ;
 311                               51  0.063107870834 node_311                   ;
 316                               49   0.37148781681 node_316                   ;
 344                               49   0.49637858226 node_344                   ;
 345                               49   0.33294531999 node_345                   ;
 350                               54  0.095331612837 node_350                   ;
 352                               50  0.076325297063 node_352                   ;
 355                               46  0.071730678823 node_355                   ;
 356                               48  0.063935902884 node_356                   ;
 358                               47 0.00051225397815 node_358                   ;
 359                               47   0.15919609775 node_359                   ;
 360                               50   0.14360819001 node_360                   ;
 361                               51   0.18014214867 node_361                   ;
 371                               48   0.12849337126 node_371                   ;
 372                               50   0.16843892304 node_372                   ;
 373                               51   0.11495681769 node_373                   ;
 378                               49  0.096388453521 node_378                   ;
 397                               50  0.050750960554 node_397                   ;
 401                               48  0.016444838796 node_401                   ;
 402                               47   0.15310752004 node_402                   ;
 403                               48   0.10477491781 node_403                   ;
 406                               48   0.01611075533 node_406                   ;
 452                               50   0.03803369021 node_452                   ;
 459                               48   0.50952718528 node_459                   ;
 460                               52   0.10896333088 node_460                   ;
 465                               47  0.041598863472 node_465                   ;
 488                               49    0.0349013281 node_488                   ;
 489                               47   0.12325415094 node_489                   ;
 490                               54   0.10397393125 node_490                   ;
 491                               48           0.002 node_491                   ;
 492                               47   0.43655096241 node_492                   ;
 494                               48  0.023547434265 node_494                   ;
 0                                 47   0.10460718779 node_0                     ;
 1                                 46  0.086291337771 node_1                     ;
 2                                 44   0.28972642904 node_2                     ;
 3                                 44   0.37411458849 node_3                     ;
 4                                 44   0.23303749739 node_4                     ;
 526                               34 0.0064677259981 node_526                   ;
 19                                46          0.0432 node_19                    ;
 577                               51   0.25757880331 node_577                   ;
 73                                45  0.025731174751 node_73                    ;
 74                                47  0.008142035872 node_74                    ;
 75                                47  0.015766841757 node_75                    ;
 601                               46          0.0022 node_601                   ;
 602                               46  0.079338320826 node_602                   ;
 114                               45  0.075878117527 node_114                   ;
 115                               47  0.075750581068 node_115                   ;
 116                               46   0.08389035778 node_116                   ;
 126                               40  0.031326237905 node_126                   ;
 127                               39   0.10079726899 node_127                   ;
 128                               42          0.0465 node_128                   ;
 129                               46          0.0054 node_129                   ;
 130                               46  0.023165095532 node_130                   ;
 131                               49  0.014112001855 node_131                   ;
 132                               46  0.084264255815 node_132                   ;
 133                               47   0.12407745148 node_133                   ;
 134                               45  0.043252011586 node_134                   ;
 646                               51   0.51191700921 node_646                   ;
 645                               53  0.014405796004 node_645                   ;
 147                               47  0.067069883756 node_147                   ;
 148                               47  0.017231119902 node_148                   ;
 155                               42 0.0052307128026 node_155                   ;
 156                               46  0.021348343899 node_156                   ;
 157                               47  0.028539475983 node_157                   ;
 674                               49    0.1345508089 node_674                   ;
 675                               48  0.010084926513 node_675                   ;
 175                               49  0.024080283277 node_175                   ;
 176                               47  0.031666751342 node_176                   ;
 177                               49  0.039337391329 node_177                   ;
 178                               47  0.055205838537 node_178                   ;
 179                               48  0.028164574932 node_179                   ;
 180                               46  0.013532983226 node_180                   ;
 694                               47  0.020012378972 node_694                   ;
 696                               45    1.2789085617 node_696                   ;
 697                               46          0.0022 node_697                   ;
 700                               45  0.056100916384 node_700                   ;
 205                               49  0.015534936679 node_205                   ;
 206                               42   0.01287176549 node_206                   ;
 207                               47  0.037496042113 node_207                   ;
 234                               44  0.002440647444 node_234                   ;
 272                               48  0.043046807001 node_272                   ;
 273                               45  0.051106932068 node_273                   ;
 274                               47  0.013255733055 node_274                   ;
 275                               46  0.047049800962 node_275                   ;
 276                               47   0.15597082288 node_276                   ;
 279                               44  0.016894085916 node_279                   ;
 307                               43  0.013245707258 node_307                   ;
 308                               47  0.010918850274 node_308                   ;
 315                               46  0.039068129476 node_315                   ;
 319                               33          0.0493 node_319                   ;
 331                               47 0.0085559773208 node_331                   ;
 332                               45          0.0225 node_332                   ;
 333                               41   0.26511725607 node_333                   ;
 334                               46   0.01519405173 node_334                   ;
 335                               48  0.015645639127 node_335                   ;
 339                               48  0.044639750827 node_339                   ;
 340                               47  0.032777408148 node_340                   ;
 341                               45  0.049653875365 node_341                   ;
 374                               44  0.011459925842 node_374                   ;
 375                               46  0.064364910386 node_375                   ;
 380                               48  0.027138543037 node_380                   ;
 381                               47  0.045713731554 node_381                   ;
 384                               48  0.022500908184 node_384                   ;
 385                               47   0.03132099616 node_385                   ;
 388                               47  0.019854071211 node_388                   ;
 389                               48 0.0044216900439 node_389                   ;
 390                               44   0.07280289043 node_390                   ;
 409                               47  0.066336206345 node_409                   ;
 426                               46   0.02530057644 node_426                   ;
 427                               47  0.011134012243 node_427                   ;
 449                               51 0.0021550235936 node_449                   ;
 470                               44          0.0652 node_470                   ;
 472                               49  0.045316296384 node_472                   ;
 473                               50  0.095939681736 node_473                   ;
 476                               41   0.39312734712 node_476                   ;
 478                               41  0.032633945571 node_478                   ;
 479                               45          0.0769 node_479                   ;
 480                               45          0.1352 node_480                   ;
 482                               47    0.0758617345 node_482                   ;
 7                                 47  0.062315669453 node_7                     ;
 520                               49  0.034711670793 node_520                   ;
 18                                48  0.058351491641 node_18                    ;
 20                                49   0.14757794813 node_20                    ;
 27                                49  0.043895573032 node_27                    ;
 28                                49  0.063291778922 node_28                    ;
 29                                49  0.021678397716 node_29                    ;
 49                                43  0.052606215206 node_49                    ;
 50                                47   0.03124448191 node_50                    ;
 66                                48  0.048374059491 node_66                    ;
 67                                48  0.049195163584 node_67                    ;
 68                                52  0.053274273394 node_68                    ;
 69                                49  0.011011284804 node_69                    ;
 70                                50   0.10690050989 node_70                    ;
 582                               49   0.05696208525 node_582                   ;
 72                                48  0.044128990026 node_72                    ;
 584                               48   0.54189145535 node_584                   ;
 583                               48  0.035157919826 node_583                   ;
 593                               53   0.15071023724 node_593                   ;
 85                                50  0.080973816812 node_85                    ;
 86                                51  0.045803657177 node_86                    ;
 87                                52  0.074579111575 node_87                    ;
 88                                49   0.39157026946 node_88                    ;
 89                                49  0.036652854847 node_89                    ;
 94                                44   0.05225593235 node_94                    ;
 95                                42  0.010400512974 node_95                    ;
 96                                36  0.050134594351 node_96                    ;
 608                               45  0.038614088127 node_608                   ;
 609                               47  0.012357051495 node_609                   ;
 100                               49  0.023860242492 node_100                   ;
 101                               49  0.059722220554 node_101                   ;
 102                               47   0.01637870901 node_102                   ;
 103                               49  0.056781487519 node_103                   ;
 104                               48   0.11570170943 node_104                   ;
 105                               50  0.036166183524 node_105                   ;
 106                               52  0.039016160227 node_106                   ;
 107                               47  0.018955614513 node_107                   ;
 108                               45   0.37525640833 node_108                   ;
 617                               45  0.040526531849 node_617                   ;
 618                               49   0.37456427572 node_618                   ;
 619                               49  0.055445620559 node_619                   ;
 112                               50   0.50750808627 node_112                   ;
 113                               48   0.10447859747 node_113                   ;
 622                               49   0.18940886067 node_622                   ;
 140                               50  0.044457423093 node_140                   ;
 141                               49   0.25226548735 node_141                   ;
 149                               47  0.065720052867 node_149                   ;
 668                               51   0.24229430679 node_668                   ;
 669                               51  0.026244971523 node_669                   ;
 670                               50   0.10118387501 node_670                   ;
 172                               48   0.19081239617 node_172                   ;
 174                               48  0.016462806215 node_174                   ;
 686                               48   0.17569558833 node_686                   ;
 688                               47   0.15817585688 node_688                   ;
 690                               49   0.20130647186 node_690                   ;
 692                               50  0.062892008355 node_692                   ;
 693                               51  0.073354133768 node_693                   ;
 195                               49  0.025585130034 node_195                   ;
 196                               49   0.21919494599 node_196                   ;
 197                               48  0.056886036253 node_197                   ;
 198                               48  0.075593872928 node_198                   ;
 199                               47   0.03871464559 node_199                   ;
 707                               49    0.1858157262 node_707                   ;
 201                               45  0.028667350272 node_201                   ;
 708                               50   0.45722736968 node_708                   ;
 709                               49    0.2520660339 node_709                   ;
 712                               46  0.081689062529 node_712                   ;
 725                               36 0.0015849563844 node_725                   ;
 726                               43  0.005303803941 node_726                   ;
 727                               36   0.11560502423 node_727                   ;
 217                               47  0.025069252463 node_217                   ;
 218                               49   0.01462362693 node_218                   ;
 219                               48  0.070619771203 node_219                   ;
 220                               45  0.028927666979 node_220                   ;
 223                               48   0.11472749716 node_223                   ;
 742                               48   0.05232037919 node_742                   ;
 269                               50  0.027597083371 node_269                   ;
 270                               49  0.085219691772 node_270                   ;
 271                               48 0.0089386144211 node_271                   ;
 292                               51   0.15043362483 node_292                   ;
 293                               49 0.0088647538937 node_293                   ;
 295                               48  0.017519659786 node_295                   ;
 296                               47  0.020969009105 node_296                   ;
 297                               46   0.16866837242 node_297                   ;
 298                               47    0.0274038162 node_298                   ;
 301                               49  0.058485786131 node_301                   ;
 309                               48  0.063560078595 node_309                   ;
 330                               53  0.035089818234 node_330                   ;
 342                               50  0.043434143883 node_342                   ;
 343                               50  0.038356471814 node_343                   ;
 348                               47  0.080883209039 node_348                   ;
 349                               47  0.053305371809 node_349                   ;
 362                               39   0.12886031277 node_362                   ;
 365                               51   0.07047233143 node_365                   ;
 366                               47   0.15705717721 node_366                   ;
 367                               51  0.062881080358 node_367                   ;
 368                               49   0.10401072649 node_368                   ;
 386                               48  0.077567295365 node_386                   ;
 387                               51  0.046243870767 node_387                   ;
 392                               48  0.015044343817 node_392                   ;
 393                               48  0.034210920175 node_393                   ;
 394                               48    0.0907666129 node_394                   ;
 395                               49  0.062591768515 node_395                   ;
 398                               48  0.060840091032 node_398                   ;
 410                               48     0.357124419 node_410                   ;
 413                               42   0.02340357333 node_413                   ;
 414                               48  0.038099936475 node_414                   ;
 415                               48  0.022447443093 node_415                   ;
 416                               48  0.031448281713 node_416                   ;
 428                               48  0.040726425929 node_428                   ;
 429                               43  0.017358222279 node_429                   ;
 432                               47   0.04665663827 node_432                   ;
 433                               48  0.056798561459 node_433                   ;
 434                               49  0.034706326535 node_434                   ;
 435                               47  0.035181754185 node_435                   ;
 436                               46  0.025819431871 node_436                   ;
 437                               44    0.1118014289 node_437                   ;
 444                               48  0.027705320512 node_444                   ;
 446                               49   0.06040649036 node_446                   ;
 451                               42  0.018616760834 node_451                   ;
 454                               45  0.045112359564 node_454                   ;
 457                               48  0.050584781038 node_457                   ;
 461                               48  0.040713267929 node_461                   ;
 486                               49   0.14851311754 node_486                   ;
 487                               49   0.14278574665 node_487                   ;
 448                               50  0.078128093057 node_448                   ;
 419                               50   0.05642102546 node_419                   ;
 561                               48  0.031051154092 node_561                   ;
 563                               50           0.002 node_563                   ;
 564                               48   0.35372615573 node_564                   ;
 565                               48          0.0072 node_565                   ;
 729                               49  0.009093650477 node_729                   ;
 441                               50   0.15178788878 node_441                   ;
 730                               49          0.0291 node_730                   ;
 732                               49           0.002 node_732                   ;
 733                               48           0.002 node_733                   ;
 734                               48           0.002 node_734                   ;
 735                               48   0.47734582456 node_735                   ;
 512                               50           0.027 node_512                   ;
 509                               53          0.0269 node_509                   ;