; Filename: Input Files/cities\martin_county\martin_county.inp
; WNTR: 1.3.2
; Created: 2025-11-06 12:26:36
[TITLE]

[JUNCTIONS]
;ID                      Elevation       Demand Pattern                 
 O-AV-1                         685.4    1.6190625623 11                         ;
 I-AV-10                        735.5               0 11                         ;
 O-AV-11                        691.9               0 11                         ;
 O-AV-2                         657.2               0 11                         ;
 O-AV-3                         747.5     1.006113444 11                         ;
 O-AV-5                          1005   0.33036126495 11                         ;
 O-AV-6                         575.9               0 11                         ;
 I-AV-7                         628.9               0 11                         ;
 I-AV-8                           615               0 11                         ;
 O-AV-9                           630               0 11                         ;
 J-1                                0   0.36998737472 11                         ;
 J-10-1                         645.7    1.2271649627 11                         ;
 J-10-10                        603.9   0.39606912596 11                         ;
 J-10-11                          793     2.000417429 11                         ;
 J-10-2                         665.4    1.9971776633 11                         ;
 J-10-3                         648.7    5.7533179353 11                         ;
 J-10-30                        686.7   0.39984664901 11                         ;
 J-10-4                           649   0.49971609975 11                         ;
 J-10-5                         665.4    1.9483376992 11                         ;
 J-10-6                           644   0.73787468724 11                         ;
 J-10-7                           629     5.173113114 11                         ;
 J-10-8                         662.4    1.1379138134 11                         ;
 J-17-16                        733.5   0.13656299611 11                         ;
 J-10-9                         606.7    2.4174362317 11                         ;
 J-1-1                          784.2   0.87584853528 11                         ;
 J-1-10                         637.5    2.4123321438 11                         ;
 J-1-100                        790.7    6.8768211746 11                         ;
 J-11-1                         605.4   0.78090122152 11                         ;
 J-1-11                         666.5   0.40405446072 11                         ;
 J-11-10                        637.5     1.804106331 11                         ;
 J-11-100                       631.4   0.37770039898 11                         ;
 J-11-101                       644.4   0.54326634392 11                         ;
 J-11-11                        639.4   0.84934473775 11                         ;
 J-11-12                          640    1.9208737167 11                         ;
 J-11-13                        838.3    0.4460921787 11                         ;
 J-11-14                        655.5   0.44062764034 11                         ;
 J-11-15                        625.2    1.4150985964 11                         ;
 J-11-16                        628.4    1.2198766385 11                         ;
 J-11-17                        630.5   0.84788149535 11                         ;
 J-11-18                        631.5    0.7710942139 11                         ;
 J-11-19                        664.4    1.4449452033 11                         ;
 J-11-2                         629.7     1.538146175 11                         ;
 J-1-12                         621.2    2.3546816028 11                         ;
 J-11-20                        703.7   0.21687557145 11                         ;
 J-11-21                          747   0.96833067081 11                         ;
 J-11-22                        677.2    0.4023889939 11                         ;
 J-11-23                          670  0.092831518261 11                         ;
 J-11-24                          702    1.1206500406 11                         ;
 J-11-25                        784.7    1.3766956373 11                         ;
 J-11-26                          760    0.1179730454 11                         ;
 J-11-3                         660.4  0.091251049874 11                         ;
 J-1-13                         620.2    1.5225067359 11                         ;
 J-11-300                       761.2    3.0174515331 11                         ;
 J-11-4                         626.4    1.0761447867 11                         ;
 J-1-14                         618.5   0.90259539857 11                         ;
 J-11-5                         602.2    0.2854882104 11                         ;
 J-1-15                         619.4     1.227144963 11                         ;
 J-11-6                         605.9    0.3506499389 11                         ;
 J-1-16                         618.2    1.4321100417 11                         ;
 J-11-62                        813.2    1.0761447867 11                         ;
 J-11-7                         625.2    1.7223812394 11                         ;
 J-1-17                         626.2    3.4609366943 11                         ;
 J-1-18                         631.2    3.6930338916 11                         ;
 J-11-9                           625    1.0761447867 11                         ;
 J-1-19                         631.9   0.98793020431 11                         ;
 J-1-2                          704.5    1.6911404119 11                         ;
 J-1-20                         631.5    6.1456640429 11                         ;
 J-1-200                        669.2    1.4555547434 11                         ;
 J-1-201                        666.9    2.9187568422 11                         ;
 J-12-1                           750   0.76757128143 11                         ;
 J-1-21                         618.2  0.037184594417 11                         ;
 J-12-10                        669.2   0.69990416921 11                         ;
 J-12-11                        663.7    1.3665216122 11                         ;
 J-12-12                        673.9  0.083320361949 11                         ;
 J-12-13                        664.7    1.2711661512 11                         ;
 J-12-14                          645    1.6611583707 11                         ;
 J-12-15                        644.5   0.27278857768 11                         ;
 J-12-2                         676.4   0.69051566284 11                         ;
 J-1-22                         628.7   0.22964366625 11                         ;
 J-12-3                         684.2   0.20151872232 11                         ;
 J-1-23                         632.9    4.0265960788 11                         ;
 J-12-4                         672.4    1.2274288721 11                         ;
 J-1-24                         618.2   0.27270674391 11                         ;
 J-12-5                         764.7  0.074081916677 11                         ;
 J-1-25                           626    1.5716175859 11                         ;
 J-12-6                         667.4   0.34296391234 11                         ;
 J-1-26                           647    11.164825642 11                         ;
 J-12-7                         662.2    1.9364927267 11                         ;
 J-1-27                         628.9    1.1442148809 11                         ;
 J-12-8                         653.2    2.6855216955 11                         ;
 J-1-28                         655.2    1.4699674717 11                         ;
 J-12-9                         656.2    1.7690994124 11                         ;
 J-1-29                             0    4.5458152373 11                         ;
 J-1-3                          707.7    3.1735970789 11                         ;
 J-1-30                         663.4    1.4732888809 11                         ;
 J-13-1                         647.4    1.1265217827 11                         ;
 J-1-31                             0    4.1417285118 11                         ;
 J-13-2                         686.7   0.96095778983 11                         ;
 J-1-32                         659.9   0.57068925117 11                         ;
 J-13-3                           760   0.95189598896 11                         ;
 J-1-33                           643    2.9190418473 11                         ;
 J-1-34                           671    14.961034165 11                         ;
 J-1-35                         725.2      2.15406569 11                         ;
 J-1-36                           654    1.5327165418 11                         ;
 J-1-37                         639.5   0.64082310898 11                         ;
 J-1-38                         665.7     1.300126646 11                         ;
 J-1-39                         664.7    4.4094245019 11                         ;
 J-1-4                          649.2    1.5793460616 11                         ;
 J-1-40                         702.3    2.9187568422 11                         ;
 J-14-1                        1026.4    1.0827863919 11                         ;
 J-1-41                         670.4     1.468735434 11                         ;
 J-14-10                        650.2    0.4455067878 11                         ;
 J-14-100                       779.9  0.057967707064 11                         ;
 J-14-101                       780.2    1.1300983656 11                         ;
 J-14-11                        661.7   0.56449797509 11                         ;
 J-14-12                        622.5    3.5050057858 11                         ;
 J-14-13                          710    1.1504883211 11                         ;
 J-14-2                        771.29    4.0336758486 11                         ;
 J-1-42                           668   0.94277214352 11                         ;
 J-14-3                         756.2    0.7995033507 11                         ;
 J-1-43                         638.8    2.9187568422 11                         ;
 J-14-4                         732.4    4.2738425232 11                         ;
 J-1-44                         660.2  0.060002795295 11                         ;
 J-14-5                         771.2   0.25271321524 11                         ;
 J-1-45                       662.675    2.9187568422 11                         ;
 J-14-6                         732.5   0.10962981826 11                         ;
 J-1-46                         649.2    2.9187568422 11                         ;
 J-14-7                         738.2    6.1025189524 11                         ;
 J-1-47                         658.9    2.9187568422 11                         ;
 J-14-8                         672.5    1.9435946964 11                         ;
 J-1-48                           656    2.9187568422 11                         ;
 J-14-9                           659    4.8282997003 11                         ;
 J-1-49                         667.9    2.9187568422 11                         ;
 J-1-50                           695    6.6629389177 11                         ;
 J-15-1                         611.5  0.097910218234 11                         ;
 J-1-51                         677.2   0.95931739334 11                         ;
 J-15-2                         611.5    1.4212735346 11                         ;
 J-1-52                         645.4    13.891884671 11                         ;
 J-15-3                         675.5    1.5034899431 11                         ;
 J-1-53                         656.5    6.1044845764 11                         ;
 J-15-4                         631.7   0.93751242248 11                         ;
 J-1-54                         657.2   0.42091557468 11                         ;
 J-15-5                         626.5    1.3195486761 11                         ;
 J-1-55                         653.7   0.25804205828 11                         ;
 J-15-6                         647.5   0.62223711684 11                         ;
 J-1-56                         657.7    3.8938383454 11                         ;
 J-15-7                           663   0.52410071996 11                         ;
 J-1-57                         665.7   0.19885299085 11                         ;
 J-15-8                         688.2   0.91960460083 11                         ;
 J-1-58                           660    1.3314272686 11                         ;
 J-1-59                         680.3  0.095812254465 11                         ;
 J-1-6                            657    0.1450785278 11                         ;
 J-16-1                         622.7    1.8882807927 11                         ;
 J-16-2                         696.5   0.81074850313 11                         ;
 J-1-63                         621.5    9.5436326816 11                         ;
 J-1-64                         619.7     5.781296663 11                         ;
 J-1-65                         618.2    3.4907300084 11                         ;
 J-1-66                         618.2     3.196396388 11                         ;
 J-1-67                         618.5    5.5939447064 11                         ;
 J-1-68                         623.4    1.0125333999 11                         ;
 J-1-69                         627.7    1.0500391548 11                         ;
 J-1-7                          682.9   0.29780965914 11                         ;
 J-1-70                         633.7    2.1131208458 11                         ;
 J-17-1                         857.5   0.98285114656 11                         ;
 J-1-71                         627.9    1.6807675718 11                         ;
 J-17-10                        696.4    2.5886209428 11                         ;
 J-17-100                       695.4    0.3052885544 11                         ;
 J-17-11                        624.7    2.2002095916 11                         ;
 J-17-12                        628.7      1.40336558 11                         ;
 J-17-2                         863.9   0.98285114656 11                         ;
 J-17-15                          654    1.1190192422 11                         ;
 J-17-200                       625.2    1.8795608254 11                         ;
 J-17-3                         862.7  0.066745160558 11                         ;
 J-1-74                         628.5      1.19934401 11                         ;
 J-17-401                       624.2   0.98285114656 11                         ;
 J-17-402                       621.7    1.1410658687 11                         ;
 J-1-75                         620.7   0.97529616082 11                         ;
 J-1-76                         619.4     1.325475323 11                         ;
 J-17-7                         819.7   0.69206051316 11                         ;
 J-1-77                         617.4   0.39040171463 11                         ;
 J-17-8                           662    1.1138508286 11                         ;
 J-1-78                         617.2    1.5618504652 11                         ;
 J-17-9                           700   0.98285114656 11                         ;
 J-1-79                         622.7    1.3359747115 11                         ;
 J-1-8                          640.7   0.23026249216 11                         ;
 J-1-80                         638.7   0.28892501948 11                         ;
 J-18-1                         668.2   0.70110319787 11                         ;
 J-1-81                           624   0.59681666056 11                         ;
 J-18-10                        671.7    5.5066430064 11                         ;
 J-18-11                        669.7    2.3400364549 11                         ;
 J-18-12                          676     1.456573613 11                         ;
 J-18-13                        680.2    1.5548647775 11                         ;
 J-18-14                        793.3    0.1463039463 11                         ;
 J-18-15                        710.7    1.6047281781 11                         ;
 J-18-16                          672    1.3036806599 11                         ;
 J-18-17                          672   0.39752053435 11                         ;
 J-18-18                          672    1.6835096877 11                         ;
 J-18-19                          672    5.6541019831 11                         ;
 J-18-2                         668.5   0.36355370529 11                         ;
 J-1-82                         628.2   0.27501923766 11                         ;
 J-18-20                          699    2.8143791679 11                         ;
 J-18-21                        744.5   0.70110319787 11                         ;
 J-18-22                        710.5    2.3785415644 11                         ;
 J-18-23                        703.7   0.44278173353 11                         ;
 J-18-24                          705    1.9205423637 11                         ;
 J-18-25                        695.7   0.70110319787 11                         ;
 J-18-26                        794.4   0.77018119396 11                         ;
 J-18-27                        777.7   0.52547299921 11                         ;
 J-18-28                        753.5    3.4791364023 11                         ;
 J-18-29                        789.2   0.32092694433 11                         ;
 J-18-3                         672.5   0.10982244116 11                         ;
 J-1-83                         623.7    0.2730848834 11                         ;
 J-18-30                        786.5   0.70110319787 11                         ;
 J-18-31                        786.5   0.12885517686 11                         ;
 J-18-32                        789.2   0.21352766798 11                         ;
 J-18-33                        792.5   0.30939646508 11                         ;
 J-18-34                        778.5    0.3553809597 11                         ;
 J-18-4                           668    2.9475400758 11                         ;
 J-1-84                           633    1.0251829529 11                         ;
 J-18-5                         670.2   0.70110319787 11                         ;
 J-1-85                         627.5   0.09050044018 11                         ;
 J-18-6                         667.5  0.066392352083 11                         ;
 J-1-86                         626.2   0.13453715552 11                         ;
 J-18-7                         694.5    2.5186908854 11                         ;
 J-1-87                           657    2.9187568422 11                         ;
 J-18-8                           730   0.34140645016 11                         ;
 J-1-88                         649.9     1.880846303 11                         ;
 J-18-9                         672.6  0.011445301532 11                         ;
 J-1-89                         742.5   0.51764286898 11                         ;
 J-1-9                          670.2   0.37030799869 11                         ;
 J-1-90                         618.2    0.2021990675 11                         ;
 J-19-1                         619.5   0.75788385846 11                         ;
 J-1-91                         686.4    2.9187568422 11                         ;
 J-19-10                          636   0.60576846729 11                         ;
 J-19-11                        633.2   0.33906279584 11                         ;
 J-19-12                        701.5  0.055392228871 11                         ;
 J-19-13                        631.7    0.8059845134 11                         ;
 J-19-14                        746.5  0.098222989199 11                         ;
 J-19-15                        633.5    1.8546844685 11                         ;
 J-19-16                        622.7    2.2441550932 11                         ;
 J-19-17                        671.2   0.36897851485 11                         ;
 J-19-18                          710    2.2430510604 11                         ;
 J-19-19                        662.7    2.5299422419 11                         ;
 J-19-2                         632.7     1.227545517 11                         ;
 J-1-92                         631.7   0.99138076207 11                         ;
 J-19-20                        637.7    1.8313063212 11                         ;
 J-19-200                       638.2    0.7819821258 11                         ;
 J-19-21                        658.4   0.19005388548 11                         ;
 J-19-22                        669.2   0.50790074974 11                         ;
 J-19-23                        669.9   0.73420857417 11                         ;
 J-19-24                        757.5    3.3118766992 11                         ;
 J-19-25                        651.5    1.0736015738 11                         ;
 J-19-26                        670.5   0.58929009194 11                         ;
 J-19-27                        659.5   0.96127507863 11                         ;
 J-19-28                        667.5   0.17681047256 11                         ;
 J-19-29                          663  0.065621674555 11                         ;
 J-19-3                         631.5   0.75788385846 11                         ;
 J-1-93                         647.5   0.47931953185 11                         ;
 J-19-30                        671.2   0.46958426525 11                         ;
 J-19-31                        680.2   0.57839598218 11                         ;
 J-19-4                         635.2   0.69790750944 11                         ;
 J-1-94                           647    4.0030156366 11                         ;
 J-19-5                         660.2   0.24445072426 11                         ;
 J-1-95                         725.2   0.35724452036 11                         ;
 J-19-6                           626  0.065106343086 11                         ;
 J-19-7                           630     1.584655421 11                         ;
 J-1-97                         636.5   0.81638235113 11                         ;
 J-19-8                           632    1.0381595132 11                         ;
 J-1-98                         619.9   0.40698926239 11                         ;
 J-19-9                         670.7   0.75788385846 11                         ;
 J-1-99                         626.9   0.70150844647 11                         ;
 J-2                                0    1.0923576559 11                         ;
 J-20-1                           672   0.50850074554 11                         ;
 J-20-10                        698.5   0.36607360998 11                         ;
 J-20-11                        684.5   0.71918174086 11                         ;
 J-20-12                        673.5   0.45701117978 11                         ;
 J-20-13                          751  0.051692622125 11                         ;
 J-20-14                          672   0.75056134418 11                         ;
 J-20-15                          724    2.7688655876 11                         ;
 J-20-16                        676.5   0.18006171529 11                         ;
 J-20-17                        705.7    4.5360103144 11                         ;
 J-20-18                        752.5     2.407213069 11                         ;
 J-20-19                        748.5   0.23096469023 11                         ;
 J-20-2                         682.2     1.586325421 11                         ;
 J-20-20                        749.4   0.52963272037 11                         ;
 J-20-21                        734.7   0.49299912985 11                         ;
 J-20-22                          766   0.40705337173 11                         ;
 J-20-23                          716    3.5166370839 11                         ;
 J-20-24                        742.4    2.3120281048 11                         ;
 J-20-3                           672   0.51393777311 11                         ;
 J-20-4                         675.5   0.41960416436 11                         ;
 J-20-5                           672   0.18155692741 11                         ;
 J-20-6                         672.9   0.69702694268 11                         ;
 J-20-7                         696.7   0.83342864853 11                         ;
 J-20-8                         716.5   0.77331017587 11                         ;
 J-20-9                         688.5   0.93683289751 11                         ;
 J-2-1                            697    1.0923576559 11                         ;
 J-2-10                         675.5   0.39116313142 11                         ;
 J-2-100                        695.2   0.61654407195 11                         ;
 J-21-1                         591.7   0.43557746738 11                         ;
 J-2-11                         696.6   0.39737630332 11                         ;
 J-21-10                        677.2   0.21117993243 11                         ;
 J-21-100                       660.8    1.4124305431 11                         ;
 J-21-101                       704.4   0.33058700447 11                         ;
 J-21-102                         707   0.16802274612 11                         ;
 J-21-11                        633.7   0.87745783592 11                         ;
 J-21-12                        595.7    1.1387074843 11                         ;
 J-21-13                        698.5   0.95289950935 11                         ;
 J-21-14                        701.7   0.97576262454 11                         ;
 J-21-15                        715.5   0.97576262454 11                         ;
 J-21-16                        675.7   0.77511802712 11                         ;
 J-21-17                        591.7    1.2323313371 11                         ;
 J-21-18                        606.4   0.86733644811 11                         ;
 J-21-19                        663.7   0.14229263275 11                         ;
 J-21-2                         586.7    0.6067742505 11                         ;
 J-2-12                         699.4   0.39464072507 11                         ;
 J-21-20                        641.9   0.70083839852 11                         ;
 J-21-200                       574.2   0.34818278191 11                         ;
 J-21-21                        636.7   0.22269692348 11                         ;
 J-21-22                        620.5    0.7468642401 11                         ;
 J-21-23                        631.7   0.43387515278 11                         ;
 J-21-24                        856.4   0.67761450544 11                         ;
 J-21-25                          561    0.4664886795 11                         ;
 J-21-26                        607.5   0.64714349164 11                         ;
 J-21-27                        822.6    1.7735165091 11                         ;
 J-21-28                          625   0.61836858841 11                         ;
 J-21-29                        627.2    1.3638830935 11                         ;
 J-21-3                         582.4   0.15981175586 11                         ;
 J-2-13                         695.2   0.24332444921 11                         ;
 J-21-30                          676   0.74851221065 11                         ;
 J-21-301                         603   0.78450123645 11                         ;
 J-21-31                        670.9    1.6760071578 11                         ;
 J-21-32                        614.2   0.83003746526 11                         ;
 J-21-33                        611.4    1.9578493607 11                         ;
 J-21-34                        602.9     1.835270452 11                         ;
 J-21-35                        711.7    1.4755488789 11                         ;
 J-21-36                        653.2    1.0071420661 11                         ;
 J-21-37                        661.3    2.0660242589 11                         ;
 J-21-38                        752.2    1.7238054407 11                         ;
 J-21-39                        747.1    1.3634868123 11                         ;
 J-21-4                         612.7   0.78634226825 11                         ;
 J-2-14                           685    4.4295178555 11                         ;
 J-21-5                         608.5   0.56098842927 11                         ;
 J-2-15                         686.7    2.5604598586 11                         ;
 J-21-500                       626.9    3.0210731909 11                         ;
 J-21-501                         614   0.54609067821 11                         ;
 J-21-502                       614.7   0.27502044738 11                         ;
 J-21-6                         605.9   0.74727022651 11                         ;
 J-2-16                         678.7   0.94817244613 11                         ;
 J-21-7                         628.9    1.2173049352 11                         ;
 J-2-17                         698.9   0.58651549318 11                         ;
 J-21-8                         588.7   0.82461040317 11                         ;
 J-2-18                         678.7   0.38163732161 11                         ;
 J-21-9                         636.9    1.8361911085 11                         ;
 J-2-19                         693.9    1.0923576559 11                         ;
 J-2-2                            694    2.7075026756 11                         ;
 J-2-20                           669     1.272164803 11                         ;
 J-2-200                          677  0.078218599627 11                         ;
 J-22-1                         610.2  0.057003145665 11                         ;