[TITLE]

[JUNCTIONS]
;ID                      Elevation       Demand Pattern                 
 516                               47  0.003600360036 base                       ;
 9                                 49  0.031683168317 base                       ;
 10                                47  0.010801080108 base                       ;
 411                               48 0.0093609360936 base                       ;
 36                                48  0.005400540054 base                       ;
 37                                49  0.003600360036 base                       ;
 38                                49  0.005400540054 base                       ;
 39                                47  0.023402340234 base                       ;
 44                                49  0.005400540054 base                       ;
 566                               48  0.007200720072 base                       ;
 458                               47  0.025922592259 base                       ;
 346                               48  0.011521152115 base                       ;
 347                               47  0.011521152115 base                       ;
 97                                48  0.016201620162 base                       ;
 98                                49  0.007200720072 base                       ;
 99                                49   0.00900090009 base                       ;
 745                               48           0.002 base                       ;
 746                               47            0.02 base                       ;
 6                                 49  0.005400540054 base                       ;
 523                               49  0.011881188119 base                       ;
 40                                50  0.016201620162 base                       ;
 41                                48  0.021602160216 base                       ;
 556                               49   0.01296129613 base                       ;
 557                               50  0.005400540054 base                       ;
 558                               47  0.015481548155 base                       ;
 51                                48   0.01800180018 base                       ;
 52                                48  0.010801080108 base                       ;
 54                                53           0.002 base                       ;
 55                                50           0.002 base                       ;
 76                                48  0.010801080108 base                       ;
 77                                49 0.0075607560756 base                       ;
 78                                48  0.018361836184 base                       ;
 79                                48  0.010801080108 base                       ;
 80                                49  0.010801080108 base                       ;
 588                               47  0.011881188119 base                       ;
 82                                49  0.016201620162 base                       ;
 590                               47  0.010081008101 base                       ;
 596                               49  0.007200720072 base                       ;
 591                               47  0.017281728173 base                       ;
 595                               47  0.010801080108 base                       ;
 599                               50  0.014401440144 base                       ;
 597                               47   0.01800180018 base                       ;
 598                               43  0.007200720072 base                       ;
 90                                49  0.007200720072 base                       ;
 92                                48  0.010801080108 base                       ;
 93                                47  0.010801080108 base                       ;
 610                               48  0.013321332133 base                       ;
 623                               60   0.00900090009 base                       ;
 624                               52           0.002 base                       ;
 649                               48  0.010801080108 base                       ;
 650                               48 0.0039603960396 base                       ;
 651                               48  0.019801980198 base                       ;
 144                               50  0.010801080108 base                       ;
 145                               48  0.016201620162 base                       ;
 658                               48 0.0021602160216 base                       ;
 151                               50  0.021602160216 base                       ;
 152                               51  0.016201620162 base                       ;
 153                               49  0.021602160216 base                       ;
 154                               47 0.0064806480648 base                       ;
 165                               50  0.021602160216 base                       ;
 166                               47  0.016201620162 base                       ;
 167                               46  0.010801080108 base                       ;
 168                               48  0.027362736274 base                       ;
 169                               48  0.015121512151 base                       ;
 170                               49 0.0032403240324 base                       ;
 678                               48 0.0075607560756 base                       ;
 171                               48 0.0093609360936 base                       ;
 689                               45  0.018361836184 base                       ;
 189                               52  0.005400540054 base                       ;
 702                               48 0.0043204320432 base                       ;
 190                               46  0.012601260126 base                       ;
 191                               48  0.005400540054 base                       ;
 192                               48  0.010801080108 base                       ;
 193                               49  0.005400540054 base                       ;
 194                               51  0.016201620162 base                       ;
 703                               49 0.0086408640864 base                       ;
 706                               48 0.0086408640864 base                       ;
 704                               47 0.0097209720972 base                       ;
 200                               48  0.012601260126 base                       ;
 203                               51   0.01404140414 base                       ;
 716                               48 0.0086408640864 base                       ;
 204                               49 0.0086408640864 base                       ;
 717                               47 0.0021602160216 base                       ;
 719                               49            0.02 base                       ;
 720                               49 0.0075607560756 base                       ;
 208                               47  0.022682268227 base                       ;
 209                               48  0.021602160216 base                       ;
 210                               49  0.017281728173 base                       ;
 212                               48  0.010801080108 base                       ;
 211                               49  0.005400540054 base                       ;
 736                               48  0.003600360036 base                       ;
 231                               47  0.005400540054 base                       ;
 232                               49  0.010801080108 base                       ;
 236                               48  0.010801080108 base                       ;
 247                               52           0.002 base                       ;
 253                               47  0.018361836184 base                       ;
 282                               50  0.010801080108 base                       ;
 283                               49  0.005400540054 base                       ;
 284                               49  0.016921692169 base                       ;
 305                               47  0.016201620162 base                       ;
 306                               49  0.010801080108 base                       ;
 311                               51  0.016201620162 base                       ;
 316                               49 0.0021602160216 base                       ;
 344                               49  0.017281728173 base                       ;
 345                               49  0.016201620162 base                       ;
 350                               54   0.01800180018 base                       ;
 352                               50  0.005400540054 base                       ;
 355                               46  0.016201620162 base                       ;
 356                               48  0.021602160216 base                       ;
 358                               47  0.010801080108 base                       ;
 359                               47   0.01296129613 base                       ;
 360                               50  0.010801080108 base                       ;
 361                               51  0.010801080108 base                       ;
 371                               48  0.012601260126 base                       ;
 372                               50  0.029882988299 base                       ;
 373                               51  0.013681368137 base                       ;
 378                               49  0.010801080108 base                       ;
 397                               50  0.010801080108 base                       ;
 401                               48  0.010801080108 base                       ;
 402                               47  0.021602160216 base                       ;
 403                               48  0.005400540054 base                       ;
 406                               48  0.005400540054 base                       ;
 452                               50  0.005400540054 base                       ;
 459                               48  0.018361836184 base                       ;
 460                               52   0.02700270027 base                       ;
 465                               47   0.00900090009 base                       ;
 488                               49  0.010801080108 base                       ;
 489                               47   0.01296129613 base                       ;
 490                               54   0.01800180018 base                       ;
 491                               48           0.002 base                       ;
 492                               47  0.034203420342 base                       ;
 494                               48  0.010801080108 base                       ;
 0                                 47  0.010801080108 base                       ;
 1                                 46  0.016201620162 base                       ;
 2                                 44  0.005400540054 base                       ;
 3                                 44  0.005400540054 base                       ;
 4                                 44 0.0039603960396 base                       ;
 526                               34  0.005400540054 base                       ;
 19                                46  0.043204320432 base                       ;
 577                               51  0.005400540054 base                       ;
 73                                45  0.010801080108 base                       ;
 74                                47  0.005400540054 base                       ;
 75                                47  0.005400540054 base                       ;
 601                               46 0.0021602160216 base                       ;
 602                               46  0.005400540054 base                       ;
 114                               45 0.0093609360936 base                       ;
 115                               47  0.011881188119 base                       ;
 116                               46 0.0075607560756 base                       ;
 126                               40  0.032403240324 base                       ;
 127                               39  0.032403240324 base                       ;
 128                               42  0.016201620162 base                       ;
 129                               46  0.005400540054 base                       ;
 130                               46  0.007200720072 base                       ;
 131                               49  0.005400540054 base                       ;
 132                               46  0.010801080108 base                       ;
 133                               47  0.005400540054 base                       ;
 134                               45  0.010801080108 base                       ;
 646                               51  0.013681368137 base                       ;
 645                               53  0.012601260126 base                       ;
 147                               47  0.007200720072 base                       ;
 148                               47  0.010801080108 base                       ;
 155                               42  0.005400540054 base                       ;
 156                               46  0.016201620162 base                       ;
 157                               47  0.005400540054 base                       ;
 674                               49  0.014761476148 base                       ;
 675                               48  0.016201620162 base                       ;
 175                               49  0.007200720072 base                       ;
 176                               47  0.016201620162 base                       ;
 177                               49  0.005400540054 base                       ;
 178                               47  0.005400540054 base                       ;
 179                               48  0.005400540054 base                       ;
 180                               46  0.010801080108 base                       ;
 694                               47 0.0064806480648 base                       ;
 696                               45 0.0050405040504 base                       ;
 697                               46 0.0021602160216 base                       ;
 700                               45           0.002 base                       ;
 205                               49           0.002 base                       ;
 206                               42  0.016201620162 base                       ;
 207                               47  0.005400540054 base                       ;
 234                               44  0.010801080108 base                       ;
 272                               48  0.007200720072 base                       ;
 273                               45  0.023402340234 base                       ;
 274                               47  0.010801080108 base                       ;
 275                               46  0.016201620162 base                       ;
 276                               47  0.021602160216 base                       ;
 279                               44  0.005400540054 base                       ;
 307                               43  0.005400540054 base                       ;
 308                               47  0.005400540054 base                       ;
 315                               46  0.011881188119 base                       ;
 319                               33   0.02700270027 base                       ;
 331                               47  0.010801080108 base                       ;
 332                               45   0.01800180018 base                       ;
 333                               41  0.010801080108 base                       ;
 334                               46  0.007200720072 base                       ;
 335                               48  0.007200720072 base                       ;
 339                               48   0.01800180018 base                       ;
 340                               47  0.005400540054 base                       ;
 341                               45  0.021602160216 base                       ;
 374                               44  0.017281728173 base                       ;
 375                               46  0.010801080108 base                       ;
 380                               48  0.005400540054 base                       ;
 381                               47  0.010801080108 base                       ;
 384                               48  0.005400540054 base                       ;
 385                               47  0.005400540054 base                       ;
 388                               47  0.010801080108 base                       ;
 389                               48  0.010801080108 base                       ;
 390                               44  0.010801080108 base                       ;
 409                               47  0.010801080108 base                       ;
 426                               46  0.016201620162 base                       ;
 427                               47  0.010801080108 base                       ;
 449                               51 0.0032403240324 base                       ;
 470                               44  0.032403240324 base                       ;
 472                               49  0.032403240324 base                       ;
 473                               50 0.0082808280828 base                       ;
 476                               41   0.02700270027 base                       ;
 478                               41           0.002 base                       ;
 479                               45           0.002 base                       ;
 480                               45  0.005400540054 base                       ;
 482                               47  0.037803780378 base                       ;
 7                                 47  0.016201620162 base                       ;
 520                               49   0.02700270027 base                       ;
 18                                48  0.021602160216 base                       ;
 20                                49  0.016201620162 base                       ;
 27                                49  0.010801080108 base                       ;
 28                                49  0.021602160216 base                       ;
 29                                49  0.010801080108 base                       ;
 49                                43  0.016201620162 base                       ;
 50                                47           0.002 base                       ;
 66                                48  0.010801080108 base                       ;
 67                                48           0.002 base                       ;
 68                                52           0.002 base                       ;
 69                                49  0.005400540054 base                       ;
 70                                50  0.025202520252 base                       ;
 582                               49  0.005400540054 base                       ;
 72                                48   0.01800180018 base                       ;
 584                               48           0.002 base                       ;
 583                               48   0.01404140414 base                       ;
 593                               53  0.018361836184 base                       ;
 85                                50  0.021602160216 base                       ;
 86                                51  0.010801080108 base                       ;
 87                                52  0.016201620162 base                       ;
 88                                49  0.029162916292 base                       ;
 89                                49  0.021602160216 base                       ;
 94                                44  0.010801080108 base                       ;
 95                                42  0.005400540054 base                       ;
 96                                36  0.010801080108 base                       ;
 608                               45  0.010801080108 base                       ;
 609                               47           0.002 base                       ;
 100                               49  0.010801080108 base                       ;
 101                               49  0.021602160216 base                       ;
 102                               47  0.021602160216 base                       ;
 103                               49  0.010801080108 base                       ;
 104                               48  0.005400540054 base                       ;
 105                               50  0.005400540054 base                       ;
 106                               52  0.016201620162 base                       ;
 107                               47  0.010801080108 base                       ;
 108                               45  0.037803780378 base                       ;
 617                               45  0.010801080108 base                       ;
 618                               49  0.016201620162 base                       ;
 619                               49 0.0064806480648 base                       ;
 112                               50  0.020162016202 base                       ;
 113                               48  0.018361836184 base                       ;
 622                               49  0.029162916292 base                       ;
 140                               50  0.010801080108 base                       ;
 141                               49  0.017281728173 base                       ;
 149                               47  0.032403240324 base                       ;
 668                               51  0.021602160216 base                       ;
 669                               51  0.010801080108 base                       ;
 670                               50  0.017281728173 base                       ;
 172                               48  0.005400540054 base                       ;
 174                               48  0.010801080108 base                       ;
 686                               48  0.016201620162 base                       ;
 688                               47 0.0064806480648 base                       ;
 690                               49  0.016201620162 base                       ;
 692                               50  0.016201620162 base                       ;
 693                               51  0.005400540054 base                       ;
 195                               49  0.010801080108 base                       ;
 196                               49  0.010801080108 base                       ;
 197                               48  0.010801080108 base                       ;
 198                               48  0.010801080108 base                       ;
 199                               47           0.002 base                       ;
 707                               49 0.0043204320432 base                       ;
 201                               45   0.02700270027 base                       ;
 708                               50 0.0064806480648 base                       ;
 709                               49 0.0043204320432 base                       ;
 712                               46  0.021602160216 base                       ;
 725                               36           0.002 base                       ;
 726                               43  0.007200720072 base                       ;
 727                               36  0.005400540054 base                       ;
 217                               47  0.007200720072 base                       ;
 218                               49  0.005400540054 base                       ;
 219                               48  0.010801080108 base                       ;
 220                               45  0.005400540054 base                       ;
 223                               48 0.0064806480648 base                       ;
 742                               48  0.010801080108 base                       ;
 269                               50  0.016201620162 base                       ;
 270                               49 0.0075607560756 base                       ;
 271                               48  0.005400540054 base                       ;
 292                               51  0.021602160216 base                       ;
 293                               49           0.002 base                       ;
 295                               48  0.011881188119 base                       ;
 296                               47  0.007200720072 base                       ;
 297                               46  0.016201620162 base                       ;
 298                               47  0.016201620162 base                       ;
 301                               49  0.016201620162 base                       ;
 309                               48  0.010801080108 base                       ;
 330                               53  0.016201620162 base                       ;
 342                               50  0.016201620162 base                       ;
 343                               50  0.012601260126 base                       ;
 348                               47  0.021602160216 base                       ;
 349                               47  0.021602160216 base                       ;
 362                               39  0.010801080108 base                       ;
 365                               51  0.010801080108 base                       ;
 366                               47  0.016201620162 base                       ;
 367                               51  0.016201620162 base                       ;
 368                               49  0.016201620162 base                       ;
 386                               48  0.010801080108 base                       ;
 387                               51  0.005400540054 base                       ;
 392                               48  0.005400540054 base                       ;
 393                               48  0.007200720072 base                       ;
 394                               48  0.021602160216 base                       ;
 395                               49  0.010801080108 base                       ;
 398                               48  0.005400540054 base                       ;
 410                               48  0.005400540054 base                       ;
 413                               42  0.010801080108 base                       ;
 414                               48  0.010801080108 base                       ;
 415                               48  0.021602160216 base                       ;
 416                               48  0.010801080108 base                       ;
 428                               48 0.0086408640864 base                       ;
 429                               43  0.010801080108 base                       ;
 432                               47  0.010801080108 base                       ;
 433                               48  0.010801080108 base                       ;
 434                               49  0.010801080108 base                       ;
 435                               47  0.005400540054 base                       ;
 436                               46           0.002 base                       ;
 437                               44  0.005400540054 base                       ;
 444                               48  0.005400540054 base                       ;
 446                               49  0.005400540054 base                       ;
 451                               42  0.003600360036 base                       ;
 454                               45  0.007200720072 base                       ;
 457                               48  0.010801080108 base                       ;
 461                               48  0.012601260126 base                       ;
 486                               49  0.005400540054 base                       ;
 487                               49 0.0075607560756 base                       ;
 448                               50  0.007200720072 base                       ;
 419                               50           0.002 base                       ;
 561                               48  0.003600360036 base                       ;
 563                               50           0.002 base                       ;
 564                               48  0.010081008101 base                       ;
 565                               48  0.007200720072 base                       ;
 729                               49           0.002 base                       ;
 441                               50  0.012601260126 base                       ;
 730                               49           0.002 base                       ;
 732                               49           0.002 base                       ;
 733                               48           0.002 base                       ;
 734                               48           0.002 base                       ;
 735                               48           0.002 base                       ;
 512                               50   0.02700270027 base                       ;
 509                               53           0.002 base                       ;
 514                               49  0.021602160216 base                       ;