; Filename: MICROPOLIS_v1_inc_rest_consumers.inp
; WNTR: 0.4.0
; Created: 2022-10-24 10:26:11
[TITLE]
Pipe	Map	Name:	Pipenet6.shp
Node	Map	Name:	Epanmap.shp
Mon	Jul	18	13:25:42	2005

[JUNCTIONS]
;ID                      Elevation       Demand Pattern                 
 IN0                             1036               0 3                          ;
 TN1                             1036      3.54166668 3                          ;
 IN2                             1038               0 3                          ;
 TN3                             1037      4.88541666 3                          ;
 IN4                             1038               0 3                          ;
 TN5                             1038      0.54444444 3                          ;
 IN6                             1038               0 3                          ;
 TN7                             1038      5.53680558 3                          ;
 IN8                             1038               0 3                          ;
 TN9                             1038      0.54444444 3                          ;
 IN10                            1036               0 3                          ;
 TN11                            1036      9.11805558 3                          ;
 TN13                            1038      0.54444444 3                          ;
 TN15                            1038      5.53680558 3                          ;
 IN16                            1037               0 3                          ;
 TN17                            1037      3.25694442 3                          ;
 TN19                            1036       6.5138889 3                          ;
 TN21                            1029      3.90833334 3                          ;
 TN23                            1029      7.01388888 3                          ;
 TN25                            1024      0.54444444 3                          ;
 TN27                            1022      9.81944442 3                          ;
 TN29                            1020       4.5597222 3                          ;
 TN31                            1031      0.62500002 2                          ;
 TN33                            1035           0.375 2                          ;
 IN34                            1036               0 2                          ;
 TN35                            1036      0.25000002 2                          ;
 TN37                            1037      0.25000002 2                          ;
 TN39                            1037      0.12499998 2                          ;
 TN41                            1037      0.12499998 2                          ;
 TN43                            1037            0.75 2                          ;
 IN44                            1037               0 2                          ;
 TN45                            1037      0.49999998 2                          ;
 TN47                            1037            0.75 2                          ;
 TN49                            1036      0.25000002 2                          ;
 TN51                            1036      0.25000002 2                          ;
 IN52                            1035               0 2                          ;
 TN53                            1035           0.375 2                          ;
 TN55                            1033           0.375 2                          ;
 TN57                            1032      0.12499998 2                          ;
 IN58                            1027               0 2                          ;
 TN59                            1031      0.62500002 2                          ;
 TN61                            1027      0.49999998 2                          ;
 TN63                            1038      0.62500002 2                          ;
 IN64                            1037               0 2                          ;
 TN65                            1037      0.12499998 2                          ;
 TN67                            1037           0.375 2                          ;
 IN68                            1036               0 2                          ;
 TN69                            1036      0.12499998 2                          ;
 TN71                            1036      0.25000002 2                          ;
 IN72                            1035               0 2                          ;
 TN73                            1035      0.62500002 2                          ;
 IN74                            1033               0 2                          ;
 TN75                            1033      0.12499998 2                          ;
 TN77                            1031      0.62500002 2                          ;
 TN79                            1027      0.25000002 2                          ;
 IN80                            1024               0 2                          ;
 TN81                            1025      0.49999998 2                          ;
 TN83                            1023           0.375 2                          ;
 TN85                            1025      0.62500002 2                          ;
 TN87                            1023      0.49999998 2                          ;
 TN89                            1022      0.62500002 2                          ;
 IN90                            1020               0 2                          ;
 TN91                            1020      0.12499998 2                          ;
 TN93                            1022            0.75 2                          ;
 TN95                            1019      0.25000002 2                          ;
 TN97                            1018      0.25000002 2                          ;
 IN98                            1018               0 2                          ;
 TN99                            1017      0.12499998 2                          ;
 TN101                           1018      0.49999998 2                          ;
 TN103                           1017      0.25000002 2                          ;
 IN104                           1016               0 2                          ;
 TN105                           1016      0.25000002 2                          ;
 TN107                           1016      0.12499998 2                          ;
 TN109                           1015      0.49999998 2                          ;
 IN110                           1032               0 2                          ;
 TN111                           1035      0.12499998 2                          ;
 TN113                           1032           0.375 2                          ;
 TN115                           1037      0.62500002 2                          ;
 TN117                           1036           0.375 2                          ;
 IN118                           1038               0 2                          ;
 TN119                           1038      0.62500002 2                          ;
 IN120                           1037               0 2                          ;
 TN121                           1037      0.12499998 2                          ;
 IN122                           1038               0 2                          ;
 TN123                           1038      0.49999998 2                          ;
 TN125                           1023      0.49999998 2                          ;
 TN127                           1024      0.25000002 2                          ;
 TN129                           1025      0.49999998 2                          ;
 TN131                           1024            0.75 2                          ;
 TN133                           1025      0.62500002 2                          ;
 TN135                           1027      0.49999998 2                          ;
 TN137                           1027      0.49999998 2                          ;
 TN139                           1028      0.49999998 2                          ;
 IN140                           1030               0 2                          ;
 TN141                           1029      0.25000002 2                          ;
 TN143                           1030      0.12499998 2                          ;
 TN145                           1035      0.25000002 2                          ;
 TN147                           1036           0.375 2                          ;
 TN149                           1031            0.75 2                          ;
 IN150                           1036               0 2                          ;
 TN151                           1037            0.75 2                          ;
 IN152                           1038               0 2                          ;
 TN153                           1038            0.75 2                          ;
 TN155                           1038      0.62500002 2                          ;
 TN157                           1039      0.25000002 2                          ;
 TN159                           1037           0.375 2                          ;
 TN161                           1039      0.25000002 2                          ;
 IN162                           1040               0 2                          ;
 TN163                           1040      0.62500002 2                          ;
 IN164                           1039               0 2                          ;
 TN165                           1039            0.75 2                          ;
 TN166                           1040      0.25000002 2                          ;
 TN167                           1040           0.375 2                          ;
 TN169                           1040            0.75 2                          ;
 TN170                           1040      0.62500002 2                          ;
 TN171                           1040      0.62500002 2                          ;
 IN172                           1040               0 2                          ;
 TN173                           1040            0.75 2                          ;
 IN174                           1040               0 2                          ;
 TN175                           1040           0.375 2                          ;
 IN176                           1040               0 2                          ;
 TN177                           1040           0.375 2                          ;
 IN178                           1040               0 2                          ;
 TN179                           1040      0.49999998 2                          ;
 TN181                           1040           0.375 2                          ;
 TN182                           1040      0.49999998 2                          ;
 TN183                           1039      0.49999998 2                          ;
 TN184                           1039           0.375 2                          ;
 TN186                           1039      0.49999998 2                          ;
 TN187                           1038      0.12499998 2                          ;
 TN188                           1039           0.375 2                          ;
 TN189                           1038      0.62500002 2                          ;
 TN191                           1039      0.62500002 2                          ;
 TN193                           1039            0.75 2                          ;
 TN195                           1040           0.375 2                          ;
 TN197                           1040           0.375 2                          ;
 TN199                           1040           0.375 2                          ;
 TN201                           1040      0.25000002 2                          ;
 TN203                           1040      0.62500002 2                          ;
 TN205                           1040      0.25000002 2                          ;
 TN207                           1040      0.49999998 2                          ;
 TN209                           1040           0.375 2                          ;
 TN211                           1040      0.25000002 2                          ;
 TN213                           1039           0.375 2                          ;
 TN215                           1039            0.75 2                          ;
 TN217                           1040           0.375 2                          ;
 TN219                           1039      0.62500002 2                          ;
 TN221                           1037            0.75 2                          ;
 TN222                           1038      0.49999998 2                          ;
 TN224                           1039      0.62500002 2                          ;
 TN226                           1036      0.12499998 2                          ;
 TN227                           1035            0.75 2                          ;
 TN228                           1035           0.375 2                          ;
 TN230                           1037      0.25000002 2                          ;
 TN232                           1033      0.62500002 2                          ;
 TN234                           1032            0.75 2                          ;
 TN236                           1031            0.75 2                          ;
 TN238                           1028            0.75 2                          ;
 TN239                           1030      0.49999998 2                          ;
 TN240                           1028      0.62500002 2                          ;
 TN242                           1026      0.12499998 2                          ;
 TN243                           1025      0.25000002 2                          ;
 TN244                           1024      0.62500002 2                          ;
 TN245                           1041      0.49999998 2                          ;
 IN246                           1041               0 2                          ;
 TN247                           1041      0.12499998 2                          ;
 TN248                           1040      0.25000002 2                          ;
 TN249                           1040      0.49999998 2                          ;
 IN250                           1040               0 2                          ;
 TN251                           1040      0.25000002 2                          ;
 TN252                           1040            0.75 2                          ;
 TN253                           1040      0.25000002 2                          ;
 TN254                           1040      0.12499998 2                          ;
 IN255                           1039               0 2                          ;
 TN256                           1039           0.375 2                          ;
 TN257                           1039      0.49999998 2                          ;
 TN258                           1038           0.375 2                          ;
 TN259                           1039      0.49999998 2                          ;
 TN261                           1033      0.25000002 2                          ;
 TN262                           1036      0.25000002 2                          ;
 TN263                           1037      0.25000002 2                          ;
 TN264                           1036      0.25000002 2                          ;
 IN265                           1031               0 2                          ;
 TN266                           1030      0.62500002 2                          ;
 TN267                           1031      0.62500002 2                          ;
 TN268                           1030      0.62500002 2                          ;
 TN269                           1032      0.62500002 2                          ;
 TN271                           1027            0.75 2                          ;
 TN272                           1026            0.75 2                          ;
 TN273                           1028      0.62500002 2                          ;
 TN274                           1028      0.62500002 2                          ;
 TN276                           1020            0.75 2                          ;
 TN278                           1019            0.75 2                          ;
 TN280                           1019           0.375 2                          ;
 TN282                           1020      0.12499998 2                          ;
 TN284                           1020      0.49999998 2                          ;
 TN286                           1022      0.12499998 2                          ;
 TN288                           1022            0.75 2                          ;
 TN290                           1024            0.75 2                          ;
 TN291                           1020      0.49999998 2                          ;
 TN293                           1020      0.12499998 2                          ;
 TN294                           1020      0.49999998 2                          ;
 TN295                           1020      0.12499998 2                          ;
 TN297                           1020      0.62500002 2                          ;
 TN299                           1019      0.49999998 2                          ;
 TN300                           1019      0.62500002 2                          ;
 TN302                           1025      0.49999998 2                          ;
 TN303                           1024      0.49999998 2                          ;
 TN304                           1025      0.25000002 2                          ;
 TN305                           1026      0.25000002 2                          ;
 TN307                           1025            0.75 2                          ;
 TN308                           1023            0.75 2                          ;
 TN309                           1023      0.25000002 2                          ;
 TN310                           1025      0.25000002 2                          ;
 IN311                           1027               0 2                          ;
 TN312                           1027            0.75 2                          ;
 TN313                           1026            0.75 2                          ;
 TN314                           1027      0.49999998 2                          ;
 TN315                           1027      0.49999998 2                          ;
 IN316                           1027               0 2                          ;
 TN317                           1027      0.25000002 2                          ;
 TN318                           1026      0.25000002 2                          ;
 TN319                           1027      0.49999998 2                          ;
 TN320                           1028      0.49999998 2                          ;
 IN321                           1029               0 2                          ;
 TN322                           1029      0.25000002 2                          ;
 TN323                           1029      0.25000002 2                          ;
 TN324                           1030      0.49999998 2                          ;
 TN325                           1030      0.49999998 2                          ;
 IN326                           1032               0 2                          ;
 TN327                           1032            0.75 2                          ;
 TN328                           1031            0.75 2                          ;
 TN329                           1033      0.25000002 2                          ;
 TN330                           1033      0.25000002 2                          ;
 IN331                           1036               0 2                          ;
 TN332                           1036      0.12499998 2                          ;
 TN333                           1035      0.12499998 2                          ;
 TN334                           1037      0.12499998 2                          ;
 TN335                           1037      0.12499998 2                          ;
 IN336                           1039               0 2                          ;
 TN337                           1039           0.375 2                          ;
 TN338                           1038           0.375 2                          ;
 TN339                           1039      0.49999998 2                          ;
 TN340                           1040      0.49999998 2                          ;
 IN341                           1041               0 2                          ;
 TN342                           1041      0.12499998 2                          ;
 TN343                           1040            0.75 2                          ;
 TN344                           1042      0.49999998 2                          ;
 TN345                           1043            0.75 2                          ;
 IN346                           1044               0 2                          ;
 TN347                           1043      0.49999998 2                          ;
 TN348                           1044      0.12499998 2                          ;
 TN349                           1044      0.62500002 2                          ;
 IN350                           1044               0 2                          ;
 TN351                           1044      0.62500002 2                          ;
 IN352                           1045               0 2                          ;
 TN353                           1045      0.25000002 2                          ;
 TN354                           1045      0.25000002 2                          ;
 IN355                           1044               0 2                          ;
 TN356                           1044      0.25000002 2                          ;
 TN357                           1044      0.12499998 2                          ;
 IN358                           1043               0 2                          ;
 TN359                           1043      0.12499998 2                          ;
 TN360                           1040      0.12499998 2                          ;
 IN361                           1037               0 2                          ;
 TN362                           1038      0.12499998 2                          ;
 TN363                           1036      0.25000002 2                          ;
 IN364                           1033               0 2                          ;
 TN365                           1033      0.62500002 2                          ;
 TN366                           1032      0.25000002 2                          ;
 IN367                           1030               0 2                          ;
 TN368                           1031      0.25000002 2                          ;
 TN369                           1029      0.12499998 2                          ;
 IN370                           1028               0 2                          ;
 TN371                           1028           0.375 2                          ;
 TN372                           1027            0.75 2                          ;
 IN373                           1027               0 2                          ;
 TN374                           1027      0.25000002 2                          ;
 TN375                           1027            0.75 2                          ;
 TN379                           1044           18.75 2                          ;
 TN381                           1043           18.75 2                          ;
 TN383                           1040           18.75 2                          ;
 TN385                           1039           18.75 2                          ;
 TN387                           1044           18.75 2                          ;
 TN389                           1043           18.75 2                          ;
 TN391                           1041           18.75 2                          ;
 TN393                           1040           18.75 2                          ;
 TN395                           1045     21.87499998 2                          ;
 TN397                           1044     21.87499998 2                          ;
 TN399                           1043     21.87499998 2                          ;
 TN401                           1040     21.87499998 2                          ;
 TN403                           1044     21.87499998 2                          ;
 TN405                           1043     21.87499998 2                          ;
 TN407                           1042     21.87499998 2                          ;
 TN409                           1040     21.87499998 2                          ;
 TN411                           1030      0.12499998 2                          ;
 IN412                           1027               0 2                          ;
 TN413                           1028      0.49999998 2                          ;
 IN414                           1030               0 2                          ;
 TN415                           1031           0.375 2                          ;
 TN416                           1030      0.12499998 2                          ;
 IN417                           1033               0 2                          ;
 TN418                           1036      0.49999998 2                          ;
 TN420                           1036      0.25000002 2                          ;
 TN422                           1036      0.62500002 2                          ;
 IN423                           1035               0 2                          ;
 TN424                           1036      0.25000002 2                          ;
 TN426                           1036            0.75 2                          ;
 IN427                           1035               0 2                          ;
 TN428                           1036      0.49999998 2                          ;
 TN430                           1033      0.25000002 2                          ;
 IN431                           1033               0 2                          ;
 TN432                           1032      0.49999998 2                          ;
 TN434                           1031            0.75 2                          ;
 IN435                           1031               0 2                          ;
 TN436                           1030           0.375 2                          ;
 TN438                           1029      0.62500002 2                          ;
 TN440                           1028      0.12499998 2                          ;
 IN441                           1015               0 2                          ;
 TN442                           1015           0.375 2                          ;
 TN444                           1014      0.62500002 2                          ;
 TN446                           1015      0.12499998 2                          ;
 IN447                           1015               0 2                          ;
 TN448                           1015      0.62500002 2                          ;
 IN449                           1018               0 2                          ;
 TN450                           1016      0.62500002 2                          ;
 TN452                           1018      0.25000002 2                          ;
 TN454                           1020            0.75 2                          ;
 IN455                           1022               0 2                          ;
 TN456                           1022           0.375 2                          ;
 IN457                           1033               0 2                          ;
 TN458                           1029        100.0002 2                          ;
 TN459                           1029          49.998 2                          ;
 TN460                           1030         49.9998 2                          ;
 IN461                           1028               0 5                          ;
 TN462                           1027      0.34722222 1                          ;
 IN463                           1028               0 5                          ;
 TN464                           1028         0.35625 5                          ;
 TN466                           1026           0.375 2                          ;
 IN467                           1025               0 2                          ;
 TN468                           1025           0.375 2                          ;
 TN469                           1027           0.375 2                          ;
 TN470                           1025           0.375 2                          ;
 TN472                           1025      0.49999998 2                          ;
 TN474                           1025           0.375 2                          ;
 TN476                           1025      0.62500002 2                          ;
 TN478                           1025      0.49999998 2                          ;
 TN479                           1025           0.375 2                          ;
 TN480                           1025      0.62500002 2                          ;
 TN482                           1025           0.375 2                          ;
 TN484                           1026      0.62500002 2                          ;
 IN485                           1027               0 5                          ;
 TN486                           1026      0.49999998 2                          ;
 TN488                           1027           0.375 2                          ;
 IN489                           1029               0 5                          ;
 TN490                           1029      0.25000002 2                          ;
 TN492                           1026       0.3451389 6                          ;
 TN494                           1029      0.30555558 1                          ;